version 2
run General-15-20240904-14:34:47-24224
attr configname General
attr datetime 20240904-14:34:47
attr experiment General
attr inifile omnetpp.ini
attr iterationvars "$0=90, $1=0"
attr iterationvarsf 90,0-
attr measurement "$0=90, $1=0"
attr network RandomGrid
attr processid 24224
attr repetition 0
attr replication #0
attr resultdir results
attr runnumber 15
attr seedset 15
param RandomGrid.poweroff_rate 90
param RandomGrid.g_syn_scheme 0
param RandomGrid.g_ic_syn_cycle 6
param RandomGrid.g_ic_num 6
param RandomGrid.g_energy_model 1
param RandomGrid.sink.node_type 0
param RandomGrid.icc.node_type 2
param RandomGrid.ic[*].node_type 1
param RandomGrid.ic[*].g_if_produce_packets false

statistic RandomGrid.sink sim_time:histogram
field count 1
field mean 216523.325
field stddev -nan
field min 216523.325
field max 216523.325
field sum 216523.325
field sqrsum 46882350269.056
attr interpolationmode none
attr source sim_time
attr title "simTime, histogram"
bin	-inf	0
bin	216522.82	0
bin	216522.84	0
bin	216522.86	0
bin	216522.88	0
bin	216522.9	0
bin	216522.92	0
bin	216522.94	0
bin	216522.96	0
bin	216522.98	0
bin	216523	0
bin	216523.02	0
bin	216523.04	0
bin	216523.06	0
bin	216523.08	0
bin	216523.1	0
bin	216523.12	0
bin	216523.14	0
bin	216523.16	0
bin	216523.18	0
bin	216523.2	0
bin	216523.22	0
bin	216523.24	0
bin	216523.26	0
bin	216523.28	0
bin	216523.3	0
bin	216523.32	1
bin	216523.34	0
bin	216523.36	0
bin	216523.38	0
bin	216523.4	0
bin	216523.42	0
bin	216523.44	0
bin	216523.46	0
bin	216523.48	0
bin	216523.5	0
bin	216523.52	0
bin	216523.54	0
bin	216523.56	0
bin	216523.58	0
bin	216523.6	0
bin	216523.62	0
bin	216523.64	0
bin	216523.66	0
bin	216523.68	0
bin	216523.7	0
bin	216523.72	0
bin	216523.74	0
bin	216523.76	0
bin	216523.78	0
bin	216523.8	0
bin	216523.82	0
bin	216523.84	0
scalar RandomGrid.sink sim_time:last 216523.325
attr interpolationmode none
attr source sim_time
attr title "simTime, last"
scalar RandomGrid.sink sim_time:min 216523.325
attr interpolationmode none
attr source sim_time
attr title "simTime, min"
scalar RandomGrid.sink sim_time:max 216523.325
attr interpolationmode none
attr source sim_time
attr title "simTime, max"
statistic RandomGrid.sink discovery_time:histogram
field count 1
field mean 1.94
field stddev -nan
field min 1.94
field max 1.94
field sum 1.94
field sqrsum 3.7636
attr interpolationmode none
attr source discovery_time
attr title "discovery time, histogram"
bin	-inf	0
bin	1.44	0
bin	1.46	0
bin	1.48	0
bin	1.5	0
bin	1.52	0
bin	1.54	0
bin	1.56	0
bin	1.58	0
bin	1.6	0
bin	1.62	0
bin	1.64	0
bin	1.66	0
bin	1.68	0
bin	1.7	0
bin	1.72	0
bin	1.74	0
bin	1.76	0
bin	1.78	0
bin	1.8	0
bin	1.82	0
bin	1.84	0
bin	1.86	0
bin	1.88	0
bin	1.9	0
bin	1.92	0
bin	1.94	1
bin	1.96	0
bin	1.98	0
bin	2	0
bin	2.02	0
bin	2.04	0
bin	2.06	0
bin	2.08	0
bin	2.1	0
bin	2.12	0
bin	2.14	0
bin	2.16	0
bin	2.18	0
bin	2.2	0
bin	2.22	0
bin	2.24	0
bin	2.26	0
bin	2.28	0
bin	2.3	0
bin	2.32	0
bin	2.34	0
bin	2.36	0
bin	2.38	0
bin	2.4	0
bin	2.42	0
bin	2.44	0
scalar RandomGrid.sink discovery_time:last 1.94
attr interpolationmode none
attr source discovery_time
attr title "discovery time, last"
scalar RandomGrid.sink discovery_time:min 1.94
attr interpolationmode none
attr source discovery_time
attr title "discovery time, min"
scalar RandomGrid.sink discovery_time:max 1.94
attr interpolationmode none
attr source discovery_time
attr title "discovery time, max"
statistic RandomGrid.icc sim_time:histogram
field count 0
field mean -nan
field stddev nan
field min nan
field max nan
field sum 0
field sqrsum 0
attr interpolationmode none
attr source sim_time
attr title "simTime, histogram"
bin	-inf	0
bin	0	0
bin	1	0
scalar RandomGrid.icc sim_time:last nan
attr interpolationmode none
attr source sim_time
attr title "simTime, last"
scalar RandomGrid.icc sim_time:min nan
attr interpolationmode none
attr source sim_time
attr title "simTime, min"
scalar RandomGrid.icc sim_time:max nan
attr interpolationmode none
attr source sim_time
attr title "simTime, max"
statistic RandomGrid.icc discovery_time:histogram
field count 0
field mean -nan
field stddev nan
field min nan
field max nan
field sum 0
field sqrsum 0
attr interpolationmode none
attr source discovery_time
attr title "discovery time, histogram"
bin	-inf	0
bin	0	0
bin	1	0
scalar RandomGrid.icc discovery_time:last nan
attr interpolationmode none
attr source discovery_time
attr title "discovery time, last"
scalar RandomGrid.icc discovery_time:min nan
attr interpolationmode none
attr source discovery_time
attr title "discovery time, min"
scalar RandomGrid.icc discovery_time:max nan
attr interpolationmode none
attr source discovery_time
attr title "discovery time, max"
statistic RandomGrid.ic[0] sim_time:histogram
field count 0
field mean -nan
field stddev nan
field min nan
field max nan
field sum 0
field sqrsum 0
attr interpolationmode none
attr source sim_time
attr title "simTime, histogram"
bin	-inf	0
bin	0	0
bin	1	0
scalar RandomGrid.ic[0] sim_time:last nan
attr interpolationmode none
attr source sim_time
attr title "simTime, last"
scalar RandomGrid.ic[0] sim_time:min nan
attr interpolationmode none
attr source sim_time
attr title "simTime, min"
scalar RandomGrid.ic[0] sim_time:max nan
attr interpolationmode none
attr source sim_time
attr title "simTime, max"
statistic RandomGrid.ic[0] discovery_time:histogram
field count 0
field mean -nan
field stddev nan
field min nan
field max nan
field sum 0
field sqrsum 0
attr interpolationmode none
attr source discovery_time
attr title "discovery time, histogram"
bin	-inf	0
bin	0	0
bin	1	0
scalar RandomGrid.ic[0] discovery_time:last nan
attr interpolationmode none
attr source discovery_time
attr title "discovery time, last"
scalar RandomGrid.ic[0] discovery_time:min nan
attr interpolationmode none
attr source discovery_time
attr title "discovery time, min"
scalar RandomGrid.ic[0] discovery_time:max nan
attr interpolationmode none
attr source discovery_time
attr title "discovery time, max"
statistic RandomGrid.ic[1] sim_time:histogram
field count 0
field mean -nan
field stddev nan
field min nan
field max nan
field sum 0
field sqrsum 0
attr interpolationmode none
attr source sim_time
attr title "simTime, histogram"
bin	-inf	0
bin	0	0
bin	1	0
scalar RandomGrid.ic[1] sim_time:last nan
attr interpolationmode none
attr source sim_time
attr title "simTime, last"
scalar RandomGrid.ic[1] sim_time:min nan
attr interpolationmode none
attr source sim_time
attr title "simTime, min"
scalar RandomGrid.ic[1] sim_time:max nan
attr interpolationmode none
attr source sim_time
attr title "simTime, max"
statistic RandomGrid.ic[1] discovery_time:histogram
field count 0
field mean -nan
field stddev nan
field min nan
field max nan
field sum 0
field sqrsum 0
attr interpolationmode none
attr source discovery_time
attr title "discovery time, histogram"
bin	-inf	0
bin	0	0
bin	1	0
scalar RandomGrid.ic[1] discovery_time:last nan
attr interpolationmode none
attr source discovery_time
attr title "discovery time, last"
scalar RandomGrid.ic[1] discovery_time:min nan
attr interpolationmode none
attr source discovery_time
attr title "discovery time, min"
scalar RandomGrid.ic[1] discovery_time:max nan
attr interpolationmode none
attr source discovery_time
attr title "discovery time, max"
statistic RandomGrid.ic[2] sim_time:histogram
field count 0
field mean -nan
field stddev nan
field min nan
field max nan
field sum 0
field sqrsum 0
attr interpolationmode none
attr source sim_time
attr title "simTime, histogram"
bin	-inf	0
bin	0	0
bin	1	0
scalar RandomGrid.ic[2] sim_time:last nan
attr interpolationmode none
attr source sim_time
attr title "simTime, last"
scalar RandomGrid.ic[2] sim_time:min nan
attr interpolationmode none
attr source sim_time
attr title "simTime, min"
scalar RandomGrid.ic[2] sim_time:max nan
attr interpolationmode none
attr source sim_time
attr title "simTime, max"
statistic RandomGrid.ic[2] discovery_time:histogram
field count 0
field mean -nan
field stddev nan
field min nan
field max nan
field sum 0
field sqrsum 0
attr interpolationmode none
attr source discovery_time
attr title "discovery time, histogram"
bin	-inf	0
bin	0	0
bin	1	0
scalar RandomGrid.ic[2] discovery_time:last nan
attr interpolationmode none
attr source discovery_time
attr title "discovery time, last"
scalar RandomGrid.ic[2] discovery_time:min nan
attr interpolationmode none
attr source discovery_time
attr title "discovery time, min"
scalar RandomGrid.ic[2] discovery_time:max nan
attr interpolationmode none
attr source discovery_time
attr title "discovery time, max"
statistic RandomGrid.ic[3] sim_time:histogram
field count 0
field mean -nan
field stddev nan
field min nan
field max nan
field sum 0
field sqrsum 0
attr interpolationmode none
attr source sim_time
attr title "simTime, histogram"
bin	-inf	0
bin	0	0
bin	1	0
scalar RandomGrid.ic[3] sim_time:last nan
attr interpolationmode none
attr source sim_time
attr title "simTime, last"
scalar RandomGrid.ic[3] sim_time:min nan
attr interpolationmode none
attr source sim_time
attr title "simTime, min"
scalar RandomGrid.ic[3] sim_time:max nan
attr interpolationmode none
attr source sim_time
attr title "simTime, max"
statistic RandomGrid.ic[3] discovery_time:histogram
field count 0
field mean -nan
field stddev nan
field min nan
field max nan
field sum 0
field sqrsum 0
attr interpolationmode none
attr source discovery_time
attr title "discovery time, histogram"
bin	-inf	0
bin	0	0
bin	1	0
scalar RandomGrid.ic[3] discovery_time:last nan
attr interpolationmode none
attr source discovery_time
attr title "discovery time, last"
scalar RandomGrid.ic[3] discovery_time:min nan
attr interpolationmode none
attr source discovery_time
attr title "discovery time, min"
scalar RandomGrid.ic[3] discovery_time:max nan
attr interpolationmode none
attr source discovery_time
attr title "discovery time, max"
statistic RandomGrid.ic[4] sim_time:histogram
field count 0
field mean -nan
field stddev nan
field min nan
field max nan
field sum 0
field sqrsum 0
attr interpolationmode none
attr source sim_time
attr title "simTime, histogram"
bin	-inf	0
bin	0	0
bin	1	0
scalar RandomGrid.ic[4] sim_time:last nan
attr interpolationmode none
attr source sim_time
attr title "simTime, last"
scalar RandomGrid.ic[4] sim_time:min nan
attr interpolationmode none
attr source sim_time
attr title "simTime, min"
scalar RandomGrid.ic[4] sim_time:max nan
attr interpolationmode none
attr source sim_time
attr title "simTime, max"
statistic RandomGrid.ic[4] discovery_time:histogram
field count 0
field mean -nan
field stddev nan
field min nan
field max nan
field sum 0
field sqrsum 0
attr interpolationmode none
attr source discovery_time
attr title "discovery time, histogram"
bin	-inf	0
bin	0	0
bin	1	0
scalar RandomGrid.ic[4] discovery_time:last nan
attr interpolationmode none
attr source discovery_time
attr title "discovery time, last"
scalar RandomGrid.ic[4] discovery_time:min nan
attr interpolationmode none
attr source discovery_time
attr title "discovery time, min"
scalar RandomGrid.ic[4] discovery_time:max nan
attr interpolationmode none
attr source discovery_time
attr title "discovery time, max"
statistic RandomGrid.ic[5] sim_time:histogram
field count 0
field mean -nan
field stddev nan
field min nan
field max nan
field sum 0
field sqrsum 0
attr interpolationmode none
attr source sim_time
attr title "simTime, histogram"
bin	-inf	0
bin	0	0
bin	1	0
scalar RandomGrid.ic[5] sim_time:last nan
attr interpolationmode none
attr source sim_time
attr title "simTime, last"
scalar RandomGrid.ic[5] sim_time:min nan
attr interpolationmode none
attr source sim_time
attr title "simTime, min"
scalar RandomGrid.ic[5] sim_time:max nan
attr interpolationmode none
attr source sim_time
attr title "simTime, max"
statistic RandomGrid.ic[5] discovery_time:histogram
field count 0
field mean -nan
field stddev nan
field min nan
field max nan
field sum 0
field sqrsum 0
attr interpolationmode none
attr source discovery_time
attr title "discovery time, histogram"
bin	-inf	0
bin	0	0
bin	1	0
scalar RandomGrid.ic[5] discovery_time:last nan
attr interpolationmode none
attr source discovery_time
attr title "discovery time, last"
scalar RandomGrid.ic[5] discovery_time:min nan
attr interpolationmode none
attr source discovery_time
attr title "discovery time, min"
scalar RandomGrid.ic[5] discovery_time:max nan
attr interpolationmode none
attr source discovery_time
attr title "discovery time, max"

