version 2
run General-18-20240904-20:00:28-28041
attr configname General
attr datetime 20240904-20:00:28
attr experiment General
attr inifile omnetpp.ini
attr iterationvars "$0=100, $1=0"
attr iterationvarsf 100,0-
attr measurement "$0=100, $1=0"
attr network RandomGrid
attr processid 28041
attr repetition 0
attr replication #0
attr resultdir results
attr runnumber 18
attr seedset 18
param RandomGrid.poweroff_rate 100
param RandomGrid.g_syn_scheme 0
param RandomGrid.g_ic_syn_cycle 6
param RandomGrid.g_ic_num 6
param RandomGrid.g_energy_model 1
param RandomGrid.sink.node_type 0
param RandomGrid.icc.node_type 2
param RandomGrid.ic[*].node_type 1
param RandomGrid.ic[*].g_if_produce_packets false

statistic RandomGrid.sink sim_time:histogram
field count 1
field mean 256951.407
field stddev -nan
field min 256951.407
field max 256951.407
field sum 256951.407
field sqrsum 66024025559.28
attr interpolationmode none
attr source sim_time
attr title "simTime, histogram"
bin	-inf	0
bin	256950.9	0
bin	256950.92	0
bin	256950.94	0
bin	256950.96	0
bin	256950.98	0
bin	256951	0
bin	256951.02	0
bin	256951.04	0
bin	256951.06	0
bin	256951.08	0
bin	256951.1	0
bin	256951.12	0
bin	256951.14	0
bin	256951.16	0
bin	256951.18	0
bin	256951.2	0
bin	256951.22	0
bin	256951.24	0
bin	256951.26	0
bin	256951.28	0
bin	256951.3	0
bin	256951.32	0
bin	256951.34	0
bin	256951.36	0
bin	256951.38	0
bin	256951.4	1
bin	256951.42	0
bin	256951.44	0
bin	256951.46	0
bin	256951.48	0
bin	256951.5	0
bin	256951.52	0
bin	256951.54	0
bin	256951.56	0
bin	256951.58	0
bin	256951.6	0
bin	256951.62	0
bin	256951.64	0
bin	256951.66	0
bin	256951.68	0
bin	256951.7	0
bin	256951.72	0
bin	256951.74	0
bin	256951.76	0
bin	256951.78	0
bin	256951.8	0
bin	256951.82	0
bin	256951.84	0
bin	256951.86	0
bin	256951.88	0
bin	256951.9	0
bin	256951.92	0
scalar RandomGrid.sink sim_time:last 256951.407
attr interpolationmode none
attr source sim_time
attr title "simTime, last"
scalar RandomGrid.sink sim_time:min 256951.407
attr interpolationmode none
attr source sim_time
attr title "simTime, min"
scalar RandomGrid.sink sim_time:max 256951.407
attr interpolationmode none
attr source sim_time
attr title "simTime, max"
statistic RandomGrid.sink discovery_time:histogram
field count 1
field mean 2.48
field stddev -nan
field min 2.48
field max 2.48
field sum 2.48
field sqrsum 6.1504
attr interpolationmode none
attr source discovery_time
attr title "discovery time, histogram"
bin	-inf	0
bin	1.98	0
bin	2	0
bin	2.02	0
bin	2.04	0
bin	2.06	0
bin	2.08	0
bin	2.1	0
bin	2.12	0
bin	2.14	0
bin	2.16	0
bin	2.18	0
bin	2.2	0
bin	2.22	0
bin	2.24	0
bin	2.26	0
bin	2.28	0
bin	2.3	0
bin	2.32	0
bin	2.34	0
bin	2.36	0
bin	2.38	0
bin	2.4	0
bin	2.42	0
bin	2.44	0
bin	2.46	0
bin	2.48	1
bin	2.5	0
bin	2.52	0
bin	2.54	0
bin	2.56	0
bin	2.58	0
bin	2.6	0
bin	2.62	0
bin	2.64	0
bin	2.66	0
bin	2.68	0
bin	2.7	0
bin	2.72	0
bin	2.74	0
bin	2.76	0
bin	2.78	0
bin	2.8	0
bin	2.82	0
bin	2.84	0
bin	2.86	0
bin	2.88	0
bin	2.9	0
bin	2.92	0
bin	2.94	0
bin	2.96	0
bin	2.98	0
scalar RandomGrid.sink discovery_time:last 2.48
attr interpolationmode none
attr source discovery_time
attr title "discovery time, last"
scalar RandomGrid.sink discovery_time:min 2.48
attr interpolationmode none
attr source discovery_time
attr title "discovery time, min"
scalar RandomGrid.sink discovery_time:max 2.48
attr interpolationmode none
attr source discovery_time
attr title "discovery time, max"
statistic RandomGrid.icc sim_time:histogram
field count 0
field mean -nan
field stddev nan
field min nan
field max nan
field sum 0
field sqrsum 0
attr interpolationmode none
attr source sim_time
attr title "simTime, histogram"
bin	-inf	0
bin	0	0
bin	1	0
scalar RandomGrid.icc sim_time:last nan
attr interpolationmode none
attr source sim_time
attr title "simTime, last"
scalar RandomGrid.icc sim_time:min nan
attr interpolationmode none
attr source sim_time
attr title "simTime, min"
scalar RandomGrid.icc sim_time:max nan
attr interpolationmode none
attr source sim_time
attr title "simTime, max"
statistic RandomGrid.icc discovery_time:histogram
field count 0
field mean -nan
field stddev nan
field min nan
field max nan
field sum 0
field sqrsum 0
attr interpolationmode none
attr source discovery_time
attr title "discovery time, histogram"
bin	-inf	0
bin	0	0
bin	1	0
scalar RandomGrid.icc discovery_time:last nan
attr interpolationmode none
attr source discovery_time
attr title "discovery time, last"
scalar RandomGrid.icc discovery_time:min nan
attr interpolationmode none
attr source discovery_time
attr title "discovery time, min"
scalar RandomGrid.icc discovery_time:max nan
attr interpolationmode none
attr source discovery_time
attr title "discovery time, max"
statistic RandomGrid.ic[0] sim_time:histogram
field count 0
field mean -nan
field stddev nan
field min nan
field max nan
field sum 0
field sqrsum 0
attr interpolationmode none
attr source sim_time
attr title "simTime, histogram"
bin	-inf	0
bin	0	0
bin	1	0
scalar RandomGrid.ic[0] sim_time:last nan
attr interpolationmode none
attr source sim_time
attr title "simTime, last"
scalar RandomGrid.ic[0] sim_time:min nan
attr interpolationmode none
attr source sim_time
attr title "simTime, min"
scalar RandomGrid.ic[0] sim_time:max nan
attr interpolationmode none
attr source sim_time
attr title "simTime, max"
statistic RandomGrid.ic[0] discovery_time:histogram
field count 0
field mean -nan
field stddev nan
field min nan
field max nan
field sum 0
field sqrsum 0
attr interpolationmode none
attr source discovery_time
attr title "discovery time, histogram"
bin	-inf	0
bin	0	0
bin	1	0
scalar RandomGrid.ic[0] discovery_time:last nan
attr interpolationmode none
attr source discovery_time
attr title "discovery time, last"
scalar RandomGrid.ic[0] discovery_time:min nan
attr interpolationmode none
attr source discovery_time
attr title "discovery time, min"
scalar RandomGrid.ic[0] discovery_time:max nan
attr interpolationmode none
attr source discovery_time
attr title "discovery time, max"
statistic RandomGrid.ic[1] sim_time:histogram
field count 0
field mean -nan
field stddev nan
field min nan
field max nan
field sum 0
field sqrsum 0
attr interpolationmode none
attr source sim_time
attr title "simTime, histogram"
bin	-inf	0
bin	0	0
bin	1	0
scalar RandomGrid.ic[1] sim_time:last nan
attr interpolationmode none
attr source sim_time
attr title "simTime, last"
scalar RandomGrid.ic[1] sim_time:min nan
attr interpolationmode none
attr source sim_time
attr title "simTime, min"
scalar RandomGrid.ic[1] sim_time:max nan
attr interpolationmode none
attr source sim_time
attr title "simTime, max"
statistic RandomGrid.ic[1] discovery_time:histogram
field count 0
field mean -nan
field stddev nan
field min nan
field max nan
field sum 0
field sqrsum 0
attr interpolationmode none
attr source discovery_time
attr title "discovery time, histogram"
bin	-inf	0
bin	0	0
bin	1	0
scalar RandomGrid.ic[1] discovery_time:last nan
attr interpolationmode none
attr source discovery_time
attr title "discovery time, last"
scalar RandomGrid.ic[1] discovery_time:min nan
attr interpolationmode none
attr source discovery_time
attr title "discovery time, min"
scalar RandomGrid.ic[1] discovery_time:max nan
attr interpolationmode none
attr source discovery_time
attr title "discovery time, max"
statistic RandomGrid.ic[2] sim_time:histogram
field count 0
field mean -nan
field stddev nan
field min nan
field max nan
field sum 0
field sqrsum 0
attr interpolationmode none
attr source sim_time
attr title "simTime, histogram"
bin	-inf	0
bin	0	0
bin	1	0
scalar RandomGrid.ic[2] sim_time:last nan
attr interpolationmode none
attr source sim_time
attr title "simTime, last"
scalar RandomGrid.ic[2] sim_time:min nan
attr interpolationmode none
attr source sim_time
attr title "simTime, min"
scalar RandomGrid.ic[2] sim_time:max nan
attr interpolationmode none
attr source sim_time
attr title "simTime, max"
statistic RandomGrid.ic[2] discovery_time:histogram
field count 0
field mean -nan
field stddev nan
field min nan
field max nan
field sum 0
field sqrsum 0
attr interpolationmode none
attr source discovery_time
attr title "discovery time, histogram"
bin	-inf	0
bin	0	0
bin	1	0
scalar RandomGrid.ic[2] discovery_time:last nan
attr interpolationmode none
attr source discovery_time
attr title "discovery time, last"
scalar RandomGrid.ic[2] discovery_time:min nan
attr interpolationmode none
attr source discovery_time
attr title "discovery time, min"
scalar RandomGrid.ic[2] discovery_time:max nan
attr interpolationmode none
attr source discovery_time
attr title "discovery time, max"
statistic RandomGrid.ic[3] sim_time:histogram
field count 0
field mean -nan
field stddev nan
field min nan
field max nan
field sum 0
field sqrsum 0
attr interpolationmode none
attr source sim_time
attr title "simTime, histogram"
bin	-inf	0
bin	0	0
bin	1	0
scalar RandomGrid.ic[3] sim_time:last nan
attr interpolationmode none
attr source sim_time
attr title "simTime, last"
scalar RandomGrid.ic[3] sim_time:min nan
attr interpolationmode none
attr source sim_time
attr title "simTime, min"
scalar RandomGrid.ic[3] sim_time:max nan
attr interpolationmode none
attr source sim_time
attr title "simTime, max"
statistic RandomGrid.ic[3] discovery_time:histogram
field count 0
field mean -nan
field stddev nan
field min nan
field max nan
field sum 0
field sqrsum 0
attr interpolationmode none
attr source discovery_time
attr title "discovery time, histogram"
bin	-inf	0
bin	0	0
bin	1	0
scalar RandomGrid.ic[3] discovery_time:last nan
attr interpolationmode none
attr source discovery_time
attr title "discovery time, last"
scalar RandomGrid.ic[3] discovery_time:min nan
attr interpolationmode none
attr source discovery_time
attr title "discovery time, min"
scalar RandomGrid.ic[3] discovery_time:max nan
attr interpolationmode none
attr source discovery_time
attr title "discovery time, max"
statistic RandomGrid.ic[4] sim_time:histogram
field count 0
field mean -nan
field stddev nan
field min nan
field max nan
field sum 0
field sqrsum 0
attr interpolationmode none
attr source sim_time
attr title "simTime, histogram"
bin	-inf	0
bin	0	0
bin	1	0
scalar RandomGrid.ic[4] sim_time:last nan
attr interpolationmode none
attr source sim_time
attr title "simTime, last"
scalar RandomGrid.ic[4] sim_time:min nan
attr interpolationmode none
attr source sim_time
attr title "simTime, min"
scalar RandomGrid.ic[4] sim_time:max nan
attr interpolationmode none
attr source sim_time
attr title "simTime, max"
statistic RandomGrid.ic[4] discovery_time:histogram
field count 0
field mean -nan
field stddev nan
field min nan
field max nan
field sum 0
field sqrsum 0
attr interpolationmode none
attr source discovery_time
attr title "discovery time, histogram"
bin	-inf	0
bin	0	0
bin	1	0
scalar RandomGrid.ic[4] discovery_time:last nan
attr interpolationmode none
attr source discovery_time
attr title "discovery time, last"
scalar RandomGrid.ic[4] discovery_time:min nan
attr interpolationmode none
attr source discovery_time
attr title "discovery time, min"
scalar RandomGrid.ic[4] discovery_time:max nan
attr interpolationmode none
attr source discovery_time
attr title "discovery time, max"
statistic RandomGrid.ic[5] sim_time:histogram
field count 0
field mean -nan
field stddev nan
field min nan
field max nan
field sum 0
field sqrsum 0
attr interpolationmode none
attr source sim_time
attr title "simTime, histogram"
bin	-inf	0
bin	0	0
bin	1	0
scalar RandomGrid.ic[5] sim_time:last nan
attr interpolationmode none
attr source sim_time
attr title "simTime, last"
scalar RandomGrid.ic[5] sim_time:min nan
attr interpolationmode none
attr source sim_time
attr title "simTime, min"
scalar RandomGrid.ic[5] sim_time:max nan
attr interpolationmode none
attr source sim_time
attr title "simTime, max"
statistic RandomGrid.ic[5] discovery_time:histogram
field count 0
field mean -nan
field stddev nan
field min nan
field max nan
field sum 0
field sqrsum 0
attr interpolationmode none
attr source discovery_time
attr title "discovery time, histogram"
bin	-inf	0
bin	0	0
bin	1	0
scalar RandomGrid.ic[5] discovery_time:last nan
attr interpolationmode none
attr source discovery_time
attr title "discovery time, last"
scalar RandomGrid.ic[5] discovery_time:min nan
attr interpolationmode none
attr source discovery_time
attr title "discovery time, min"
scalar RandomGrid.ic[5] discovery_time:max nan
attr interpolationmode none
attr source discovery_time
attr title "discovery time, max"

