version 2
run General-1-20240914-21:14:04-24164
attr configname General
attr datetime 20240914-21:14:04
attr experiment General
attr inifile omnetpp.ini
attr iterationvars "$0=1, $1=0, $2=0"
attr iterationvarsf 1,0,0-
attr measurement "$0=1, $1=0, $2=0"
attr network RandomGrid
attr processid 24164
attr repetition 1
attr replication #1
attr resultdir results
attr runnumber 1
attr seedset 1
param RandomGrid.poweroff_rate 1
param RandomGrid.g_syn_scheme 0
param RandomGrid.g_energy_model 0
param RandomGrid.g_ic_num 6
param RandomGrid.sink.node_type 0
param RandomGrid.icc.node_type 2
param RandomGrid.ic[*].node_type 1
param RandomGrid.ic[*].g_if_produce_packets false

statistic RandomGrid.sink sim_time:histogram
field count 1
field mean 198676.695
field stddev nan
field min 198676.695
field max 198676.695
field sum 198676.695
field sqrsum 39472429136.123
attr interpolationmode none
attr source sim_time
attr title "simTime, histogram"
bin	-inf	0
bin	198676.18	0
bin	198676.2	0
bin	198676.22	0
bin	198676.24	0
bin	198676.26	0
bin	198676.28	0
bin	198676.3	0
bin	198676.32	0
bin	198676.34	0
bin	198676.36	0
bin	198676.38	0
bin	198676.4	0
bin	198676.42	0
bin	198676.44	0
bin	198676.46	0
bin	198676.48	0
bin	198676.5	0
bin	198676.52	0
bin	198676.54	0
bin	198676.56	0
bin	198676.58	0
bin	198676.6	0
bin	198676.62	0
bin	198676.64	0
bin	198676.66	0
bin	198676.68	1
bin	198676.7	0
bin	198676.72	0
bin	198676.74	0
bin	198676.76	0
bin	198676.78	0
bin	198676.8	0
bin	198676.82	0
bin	198676.84	0
bin	198676.86	0
bin	198676.88	0
bin	198676.9	0
bin	198676.92	0
bin	198676.94	0
bin	198676.96	0
bin	198676.98	0
bin	198677	0
bin	198677.02	0
bin	198677.04	0
bin	198677.06	0
bin	198677.08	0
bin	198677.1	0
bin	198677.12	0
bin	198677.14	0
bin	198677.16	0
bin	198677.18	0
bin	198677.2	0
scalar RandomGrid.sink sim_time:last 198676.695
attr interpolationmode none
attr source sim_time
attr title "simTime, last"
scalar RandomGrid.sink sim_time:min 198676.695
attr interpolationmode none
attr source sim_time
attr title "simTime, min"
scalar RandomGrid.sink sim_time:max 198676.695
attr interpolationmode none
attr source sim_time
attr title "simTime, max"
statistic RandomGrid.sink discovery_time:histogram
field count 0
field mean nan
field stddev nan
field min nan
field max nan
field sum 0
field sqrsum 0
attr interpolationmode none
attr source discovery_time
attr title "discovery time, histogram"
bin	-inf	0
bin	0	0
bin	1	0
scalar RandomGrid.sink discovery_time:last nan
attr interpolationmode none
attr source discovery_time
attr title "discovery time, last"
scalar RandomGrid.sink discovery_time:min nan
attr interpolationmode none
attr source discovery_time
attr title "discovery time, min"
scalar RandomGrid.sink discovery_time:max nan
attr interpolationmode none
attr source discovery_time
attr title "discovery time, max"
statistic RandomGrid.icc sim_time:histogram
field count 0
field mean nan
field stddev nan
field min nan
field max nan
field sum 0
field sqrsum 0
attr interpolationmode none
attr source sim_time
attr title "simTime, histogram"
bin	-inf	0
bin	0	0
bin	1	0
scalar RandomGrid.icc sim_time:last nan
attr interpolationmode none
attr source sim_time
attr title "simTime, last"
scalar RandomGrid.icc sim_time:min nan
attr interpolationmode none
attr source sim_time
attr title "simTime, min"
scalar RandomGrid.icc sim_time:max nan
attr interpolationmode none
attr source sim_time
attr title "simTime, max"
statistic RandomGrid.icc discovery_time:histogram
field count 0
field mean nan
field stddev nan
field min nan
field max nan
field sum 0
field sqrsum 0
attr interpolationmode none
attr source discovery_time
attr title "discovery time, histogram"
bin	-inf	0
bin	0	0
bin	1	0
scalar RandomGrid.icc discovery_time:last nan
attr interpolationmode none
attr source discovery_time
attr title "discovery time, last"
scalar RandomGrid.icc discovery_time:min nan
attr interpolationmode none
attr source discovery_time
attr title "discovery time, min"
scalar RandomGrid.icc discovery_time:max nan
attr interpolationmode none
attr source discovery_time
attr title "discovery time, max"
statistic RandomGrid.ic[0] sim_time:histogram
field count 0
field mean nan
field stddev nan
field min nan
field max nan
field sum 0
field sqrsum 0
attr interpolationmode none
attr source sim_time
attr title "simTime, histogram"
bin	-inf	0
bin	0	0
bin	1	0
scalar RandomGrid.ic[0] sim_time:last nan
attr interpolationmode none
attr source sim_time
attr title "simTime, last"
scalar RandomGrid.ic[0] sim_time:min nan
attr interpolationmode none
attr source sim_time
attr title "simTime, min"
scalar RandomGrid.ic[0] sim_time:max nan
attr interpolationmode none
attr source sim_time
attr title "simTime, max"
statistic RandomGrid.ic[0] discovery_time:histogram
field count 0
field mean nan
field stddev nan
field min nan
field max nan
field sum 0
field sqrsum 0
attr interpolationmode none
attr source discovery_time
attr title "discovery time, histogram"
bin	-inf	0
bin	0	0
bin	1	0
scalar RandomGrid.ic[0] discovery_time:last nan
attr interpolationmode none
attr source discovery_time
attr title "discovery time, last"
scalar RandomGrid.ic[0] discovery_time:min nan
attr interpolationmode none
attr source discovery_time
attr title "discovery time, min"
scalar RandomGrid.ic[0] discovery_time:max nan
attr interpolationmode none
attr source discovery_time
attr title "discovery time, max"
statistic RandomGrid.ic[1] sim_time:histogram
field count 0
field mean nan
field stddev nan
field min nan
field max nan
field sum 0
field sqrsum 0
attr interpolationmode none
attr source sim_time
attr title "simTime, histogram"
bin	-inf	0
bin	0	0
bin	1	0
scalar RandomGrid.ic[1] sim_time:last nan
attr interpolationmode none
attr source sim_time
attr title "simTime, last"
scalar RandomGrid.ic[1] sim_time:min nan
attr interpolationmode none
attr source sim_time
attr title "simTime, min"
scalar RandomGrid.ic[1] sim_time:max nan
attr interpolationmode none
attr source sim_time
attr title "simTime, max"
statistic RandomGrid.ic[1] discovery_time:histogram
field count 0
field mean nan
field stddev nan
field min nan
field max nan
field sum 0
field sqrsum 0
attr interpolationmode none
attr source discovery_time
attr title "discovery time, histogram"
bin	-inf	0
bin	0	0
bin	1	0
scalar RandomGrid.ic[1] discovery_time:last nan
attr interpolationmode none
attr source discovery_time
attr title "discovery time, last"
scalar RandomGrid.ic[1] discovery_time:min nan
attr interpolationmode none
attr source discovery_time
attr title "discovery time, min"
scalar RandomGrid.ic[1] discovery_time:max nan
attr interpolationmode none
attr source discovery_time
attr title "discovery time, max"
statistic RandomGrid.ic[2] sim_time:histogram
field count 0
field mean nan
field stddev nan
field min nan
field max nan
field sum 0
field sqrsum 0
attr interpolationmode none
attr source sim_time
attr title "simTime, histogram"
bin	-inf	0
bin	0	0
bin	1	0
scalar RandomGrid.ic[2] sim_time:last nan
attr interpolationmode none
attr source sim_time
attr title "simTime, last"
scalar RandomGrid.ic[2] sim_time:min nan
attr interpolationmode none
attr source sim_time
attr title "simTime, min"
scalar RandomGrid.ic[2] sim_time:max nan
attr interpolationmode none
attr source sim_time
attr title "simTime, max"
statistic RandomGrid.ic[2] discovery_time:histogram
field count 0
field mean nan
field stddev nan
field min nan
field max nan
field sum 0
field sqrsum 0
attr interpolationmode none
attr source discovery_time
attr title "discovery time, histogram"
bin	-inf	0
bin	0	0
bin	1	0
scalar RandomGrid.ic[2] discovery_time:last nan
attr interpolationmode none
attr source discovery_time
attr title "discovery time, last"
scalar RandomGrid.ic[2] discovery_time:min nan
attr interpolationmode none
attr source discovery_time
attr title "discovery time, min"
scalar RandomGrid.ic[2] discovery_time:max nan
attr interpolationmode none
attr source discovery_time
attr title "discovery time, max"
statistic RandomGrid.ic[3] sim_time:histogram
field count 0
field mean nan
field stddev nan
field min nan
field max nan
field sum 0
field sqrsum 0
attr interpolationmode none
attr source sim_time
attr title "simTime, histogram"
bin	-inf	0
bin	0	0
bin	1	0
scalar RandomGrid.ic[3] sim_time:last nan
attr interpolationmode none
attr source sim_time
attr title "simTime, last"
scalar RandomGrid.ic[3] sim_time:min nan
attr interpolationmode none
attr source sim_time
attr title "simTime, min"
scalar RandomGrid.ic[3] sim_time:max nan
attr interpolationmode none
attr source sim_time
attr title "simTime, max"
statistic RandomGrid.ic[3] discovery_time:histogram
field count 0
field mean nan
field stddev nan
field min nan
field max nan
field sum 0
field sqrsum 0
attr interpolationmode none
attr source discovery_time
attr title "discovery time, histogram"
bin	-inf	0
bin	0	0
bin	1	0
scalar RandomGrid.ic[3] discovery_time:last nan
attr interpolationmode none
attr source discovery_time
attr title "discovery time, last"
scalar RandomGrid.ic[3] discovery_time:min nan
attr interpolationmode none
attr source discovery_time
attr title "discovery time, min"
scalar RandomGrid.ic[3] discovery_time:max nan
attr interpolationmode none
attr source discovery_time
attr title "discovery time, max"
statistic RandomGrid.ic[4] sim_time:histogram
field count 0
field mean nan
field stddev nan
field min nan
field max nan
field sum 0
field sqrsum 0
attr interpolationmode none
attr source sim_time
attr title "simTime, histogram"
bin	-inf	0
bin	0	0
bin	1	0
scalar RandomGrid.ic[4] sim_time:last nan
attr interpolationmode none
attr source sim_time
attr title "simTime, last"
scalar RandomGrid.ic[4] sim_time:min nan
attr interpolationmode none
attr source sim_time
attr title "simTime, min"
scalar RandomGrid.ic[4] sim_time:max nan
attr interpolationmode none
attr source sim_time
attr title "simTime, max"
statistic RandomGrid.ic[4] discovery_time:histogram
field count 0
field mean nan
field stddev nan
field min nan
field max nan
field sum 0
field sqrsum 0
attr interpolationmode none
attr source discovery_time
attr title "discovery time, histogram"
bin	-inf	0
bin	0	0
bin	1	0
scalar RandomGrid.ic[4] discovery_time:last nan
attr interpolationmode none
attr source discovery_time
attr title "discovery time, last"
scalar RandomGrid.ic[4] discovery_time:min nan
attr interpolationmode none
attr source discovery_time
attr title "discovery time, min"
scalar RandomGrid.ic[4] discovery_time:max nan
attr interpolationmode none
attr source discovery_time
attr title "discovery time, max"
statistic RandomGrid.ic[5] sim_time:histogram
field count 0
field mean nan
field stddev nan
field min nan
field max nan
field sum 0
field sqrsum 0
attr interpolationmode none
attr source sim_time
attr title "simTime, histogram"
bin	-inf	0
bin	0	0
bin	1	0
scalar RandomGrid.ic[5] sim_time:last nan
attr interpolationmode none
attr source sim_time
attr title "simTime, last"
scalar RandomGrid.ic[5] sim_time:min nan
attr interpolationmode none
attr source sim_time
attr title "simTime, min"
scalar RandomGrid.ic[5] sim_time:max nan
attr interpolationmode none
attr source sim_time
attr title "simTime, max"
statistic RandomGrid.ic[5] discovery_time:histogram
field count 0
field mean nan
field stddev nan
field min nan
field max nan
field sum 0
field sqrsum 0
attr interpolationmode none
attr source discovery_time
attr title "discovery time, histogram"
bin	-inf	0
bin	0	0
bin	1	0
scalar RandomGrid.ic[5] discovery_time:last nan
attr interpolationmode none
attr source discovery_time
attr title "discovery time, last"
scalar RandomGrid.ic[5] discovery_time:min nan
attr interpolationmode none
attr source discovery_time
attr title "discovery time, min"
scalar RandomGrid.ic[5] discovery_time:max nan
attr interpolationmode none
attr source discovery_time
attr title "discovery time, max"

