version 2
run General-6-20240814-07:06:00-10884
attr configname General
attr datetime 20240814-07:06:00
attr experiment General
attr inifile omnetpp.ini
attr iterationvars $0=100
attr iterationvarsf 100-
attr measurement $0=100
attr network src.RandomGrid
attr processid 10884
attr repetition 0
attr replication #0
attr resultdir results
attr runnumber 6
attr seedset 6
param RandomGrid.poweroff_rate 100
param RandomGrid.g_ic_num 30
param RandomGrid.g_energy_model 0
param RandomGrid.power_off_switch true
param RandomGrid.g_reduce_scheme 2
param RandomGrid.sink.node_type 0
param RandomGrid.icc.node_type 2
param RandomGrid.ic[*].node_type 1
param RandomGrid.ic[*].g_if_produce_packets false

statistic RandomGrid.sink sim_time:histogram
field count 1
field mean 6621366.31
field stddev nan
field min 6621366.31
field max 6621366.31
field sum 6621366.31
field sqrsum 43842491811203
attr interpolationmode none
attr source sim_time
attr title "simTime, histogram"
bin	-inf	0
bin	6621365.8	0
bin	6621365.82	0
bin	6621365.84	0
bin	6621365.86	0
bin	6621365.88	0
bin	6621365.9	0
bin	6621365.92	0
bin	6621365.94	0
bin	6621365.96	0
bin	6621365.98	0
bin	6621366	0
bin	6621366.02	0
bin	6621366.04	0
bin	6621366.06	0
bin	6621366.08	0
bin	6621366.1	0
bin	6621366.12	0
bin	6621366.14	0
bin	6621366.16	0
bin	6621366.18	0
bin	6621366.2	0
bin	6621366.22	0
bin	6621366.24	0
bin	6621366.26	0
bin	6621366.28	0
bin	6621366.3	1
bin	6621366.32	0
bin	6621366.34	0
bin	6621366.36	0
bin	6621366.38	0
bin	6621366.4	0
bin	6621366.42	0
bin	6621366.44	0
bin	6621366.46	0
bin	6621366.48	0
bin	6621366.5	0
bin	6621366.52	0
bin	6621366.54	0
bin	6621366.56	0
bin	6621366.58	0
bin	6621366.6	0
bin	6621366.62	0
bin	6621366.64	0
bin	6621366.66	0
bin	6621366.68	0
bin	6621366.7	0
bin	6621366.72	0
bin	6621366.74	0
bin	6621366.76	0
bin	6621366.78	0
bin	6621366.8	0
bin	6621366.82	0
bin	6621366.84	0
scalar RandomGrid.sink sim_time:last 6621366.31
attr interpolationmode none
attr source sim_time
attr title "simTime, last"
scalar RandomGrid.sink sim_time:min 6621366.31
attr interpolationmode none
attr source sim_time
attr title "simTime, min"
scalar RandomGrid.sink sim_time:max 6621366.31
attr interpolationmode none
attr source sim_time
attr title "simTime, max"
statistic RandomGrid.sink discovery_time:histogram
field count 1
field mean 1.988
field stddev nan
field min 1.988
field max 1.988
field sum 1.988
field sqrsum 3.952144
attr interpolationmode none
attr source discovery_time
attr title "discovery time, histogram"
bin	-inf	0
bin	1.48	0
bin	1.5	0
bin	1.52	0
bin	1.54	0
bin	1.56	0
bin	1.58	0
bin	1.6	0
bin	1.62	0
bin	1.64	0
bin	1.66	0
bin	1.68	0
bin	1.7	0
bin	1.72	0
bin	1.74	0
bin	1.76	0
bin	1.78	0
bin	1.8	0
bin	1.82	0
bin	1.84	0
bin	1.86	0
bin	1.88	0
bin	1.9	0
bin	1.92	0
bin	1.94	0
bin	1.96	0
bin	1.98	1
bin	2	0
bin	2.02	0
bin	2.04	0
bin	2.06	0
bin	2.08	0
bin	2.1	0
bin	2.12	0
bin	2.14	0
bin	2.16	0
bin	2.18	0
bin	2.2	0
bin	2.22	0
bin	2.24	0
bin	2.26	0
bin	2.28	0
bin	2.3	0
bin	2.32	0
bin	2.34	0
bin	2.36	0
bin	2.38	0
bin	2.4	0
bin	2.42	0
bin	2.44	0
bin	2.46	0
bin	2.48	0
bin	2.5	0
scalar RandomGrid.sink discovery_time:last 1.988
attr interpolationmode none
attr source discovery_time
attr title "discovery time, last"
scalar RandomGrid.sink discovery_time:min 1.988
attr interpolationmode none
attr source discovery_time
attr title "discovery time, min"
scalar RandomGrid.sink discovery_time:max 1.988
attr interpolationmode none
attr source discovery_time
attr title "discovery time, max"
statistic RandomGrid.icc sim_time:histogram
field count 0
field mean nan
field stddev nan
field min nan
field max nan
field sum 0
field sqrsum 0
attr interpolationmode none
attr source sim_time
attr title "simTime, histogram"
bin	-inf	0
bin	0	0
bin	1	0
scalar RandomGrid.icc sim_time:last nan
attr interpolationmode none
attr source sim_time
attr title "simTime, last"
scalar RandomGrid.icc sim_time:min nan
attr interpolationmode none
attr source sim_time
attr title "simTime, min"
scalar RandomGrid.icc sim_time:max nan
attr interpolationmode none
attr source sim_time
attr title "simTime, max"
statistic RandomGrid.icc discovery_time:histogram
field count 0
field mean nan
field stddev nan
field min nan
field max nan
field sum 0
field sqrsum 0
attr interpolationmode none
attr source discovery_time
attr title "discovery time, histogram"
bin	-inf	0
bin	0	0
bin	1	0
scalar RandomGrid.icc discovery_time:last nan
attr interpolationmode none
attr source discovery_time
attr title "discovery time, last"
scalar RandomGrid.icc discovery_time:min nan
attr interpolationmode none
attr source discovery_time
attr title "discovery time, min"
scalar RandomGrid.icc discovery_time:max nan
attr interpolationmode none
attr source discovery_time
attr title "discovery time, max"
statistic RandomGrid.ic[0] sim_time:histogram
field count 0
field mean nan
field stddev nan
field min nan
field max nan
field sum 0
field sqrsum 0
attr interpolationmode none
attr source sim_time
attr title "simTime, histogram"
bin	-inf	0
bin	0	0
bin	1	0
scalar RandomGrid.ic[0] sim_time:last nan
attr interpolationmode none
attr source sim_time
attr title "simTime, last"
scalar RandomGrid.ic[0] sim_time:min nan
attr interpolationmode none
attr source sim_time
attr title "simTime, min"
scalar RandomGrid.ic[0] sim_time:max nan
attr interpolationmode none
attr source sim_time
attr title "simTime, max"
statistic RandomGrid.ic[0] discovery_time:histogram
field count 0
field mean nan
field stddev nan
field min nan
field max nan
field sum 0
field sqrsum 0
attr interpolationmode none
attr source discovery_time
attr title "discovery time, histogram"
bin	-inf	0
bin	0	0
bin	1	0
scalar RandomGrid.ic[0] discovery_time:last nan
attr interpolationmode none
attr source discovery_time
attr title "discovery time, last"
scalar RandomGrid.ic[0] discovery_time:min nan
attr interpolationmode none
attr source discovery_time
attr title "discovery time, min"
scalar RandomGrid.ic[0] discovery_time:max nan
attr interpolationmode none
attr source discovery_time
attr title "discovery time, max"
statistic RandomGrid.ic[1] sim_time:histogram
field count 0
field mean nan
field stddev nan
field min nan
field max nan
field sum 0
field sqrsum 0
attr interpolationmode none
attr source sim_time
attr title "simTime, histogram"
bin	-inf	0
bin	0	0
bin	1	0
scalar RandomGrid.ic[1] sim_time:last nan
attr interpolationmode none
attr source sim_time
attr title "simTime, last"
scalar RandomGrid.ic[1] sim_time:min nan
attr interpolationmode none
attr source sim_time
attr title "simTime, min"
scalar RandomGrid.ic[1] sim_time:max nan
attr interpolationmode none
attr source sim_time
attr title "simTime, max"
statistic RandomGrid.ic[1] discovery_time:histogram
field count 0
field mean nan
field stddev nan
field min nan
field max nan
field sum 0
field sqrsum 0
attr interpolationmode none
attr source discovery_time
attr title "discovery time, histogram"
bin	-inf	0
bin	0	0
bin	1	0
scalar RandomGrid.ic[1] discovery_time:last nan
attr interpolationmode none
attr source discovery_time
attr title "discovery time, last"
scalar RandomGrid.ic[1] discovery_time:min nan
attr interpolationmode none
attr source discovery_time
attr title "discovery time, min"
scalar RandomGrid.ic[1] discovery_time:max nan
attr interpolationmode none
attr source discovery_time
attr title "discovery time, max"
statistic RandomGrid.ic[2] sim_time:histogram
field count 0
field mean nan
field stddev nan
field min nan
field max nan
field sum 0
field sqrsum 0
attr interpolationmode none
attr source sim_time
attr title "simTime, histogram"
bin	-inf	0
bin	0	0
bin	1	0
scalar RandomGrid.ic[2] sim_time:last nan
attr interpolationmode none
attr source sim_time
attr title "simTime, last"
scalar RandomGrid.ic[2] sim_time:min nan
attr interpolationmode none
attr source sim_time
attr title "simTime, min"
scalar RandomGrid.ic[2] sim_time:max nan
attr interpolationmode none
attr source sim_time
attr title "simTime, max"
statistic RandomGrid.ic[2] discovery_time:histogram
field count 0
field mean nan
field stddev nan
field min nan
field max nan
field sum 0
field sqrsum 0
attr interpolationmode none
attr source discovery_time
attr title "discovery time, histogram"
bin	-inf	0
bin	0	0
bin	1	0
scalar RandomGrid.ic[2] discovery_time:last nan
attr interpolationmode none
attr source discovery_time
attr title "discovery time, last"
scalar RandomGrid.ic[2] discovery_time:min nan
attr interpolationmode none
attr source discovery_time
attr title "discovery time, min"
scalar RandomGrid.ic[2] discovery_time:max nan
attr interpolationmode none
attr source discovery_time
attr title "discovery time, max"
statistic RandomGrid.ic[3] sim_time:histogram
field count 0
field mean nan
field stddev nan
field min nan
field max nan
field sum 0
field sqrsum 0
attr interpolationmode none
attr source sim_time
attr title "simTime, histogram"
bin	-inf	0
bin	0	0
bin	1	0
scalar RandomGrid.ic[3] sim_time:last nan
attr interpolationmode none
attr source sim_time
attr title "simTime, last"
scalar RandomGrid.ic[3] sim_time:min nan
attr interpolationmode none
attr source sim_time
attr title "simTime, min"
scalar RandomGrid.ic[3] sim_time:max nan
attr interpolationmode none
attr source sim_time
attr title "simTime, max"
statistic RandomGrid.ic[3] discovery_time:histogram
field count 0
field mean nan
field stddev nan
field min nan
field max nan
field sum 0
field sqrsum 0
attr interpolationmode none
attr source discovery_time
attr title "discovery time, histogram"
bin	-inf	0
bin	0	0
bin	1	0
scalar RandomGrid.ic[3] discovery_time:last nan
attr interpolationmode none
attr source discovery_time
attr title "discovery time, last"
scalar RandomGrid.ic[3] discovery_time:min nan
attr interpolationmode none
attr source discovery_time
attr title "discovery time, min"
scalar RandomGrid.ic[3] discovery_time:max nan
attr interpolationmode none
attr source discovery_time
attr title "discovery time, max"
statistic RandomGrid.ic[4] sim_time:histogram
field count 0
field mean nan
field stddev nan
field min nan
field max nan
field sum 0
field sqrsum 0
attr interpolationmode none
attr source sim_time
attr title "simTime, histogram"
bin	-inf	0
bin	0	0
bin	1	0
scalar RandomGrid.ic[4] sim_time:last nan
attr interpolationmode none
attr source sim_time
attr title "simTime, last"
scalar RandomGrid.ic[4] sim_time:min nan
attr interpolationmode none
attr source sim_time
attr title "simTime, min"
scalar RandomGrid.ic[4] sim_time:max nan
attr interpolationmode none
attr source sim_time
attr title "simTime, max"
statistic RandomGrid.ic[4] discovery_time:histogram
field count 0
field mean nan
field stddev nan
field min nan
field max nan
field sum 0
field sqrsum 0
attr interpolationmode none
attr source discovery_time
attr title "discovery time, histogram"
bin	-inf	0
bin	0	0
bin	1	0
scalar RandomGrid.ic[4] discovery_time:last nan
attr interpolationmode none
attr source discovery_time
attr title "discovery time, last"
scalar RandomGrid.ic[4] discovery_time:min nan
attr interpolationmode none
attr source discovery_time
attr title "discovery time, min"
scalar RandomGrid.ic[4] discovery_time:max nan
attr interpolationmode none
attr source discovery_time
attr title "discovery time, max"
statistic RandomGrid.ic[5] sim_time:histogram
field count 0
field mean nan
field stddev nan
field min nan
field max nan
field sum 0
field sqrsum 0
attr interpolationmode none
attr source sim_time
attr title "simTime, histogram"
bin	-inf	0
bin	0	0
bin	1	0
scalar RandomGrid.ic[5] sim_time:last nan
attr interpolationmode none
attr source sim_time
attr title "simTime, last"
scalar RandomGrid.ic[5] sim_time:min nan
attr interpolationmode none
attr source sim_time
attr title "simTime, min"
scalar RandomGrid.ic[5] sim_time:max nan
attr interpolationmode none
attr source sim_time
attr title "simTime, max"
statistic RandomGrid.ic[5] discovery_time:histogram
field count 0
field mean nan
field stddev nan
field min nan
field max nan
field sum 0
field sqrsum 0
attr interpolationmode none
attr source discovery_time
attr title "discovery time, histogram"
bin	-inf	0
bin	0	0
bin	1	0
scalar RandomGrid.ic[5] discovery_time:last nan
attr interpolationmode none
attr source discovery_time
attr title "discovery time, last"
scalar RandomGrid.ic[5] discovery_time:min nan
attr interpolationmode none
attr source discovery_time
attr title "discovery time, min"
scalar RandomGrid.ic[5] discovery_time:max nan
attr interpolationmode none
attr source discovery_time
attr title "discovery time, max"
statistic RandomGrid.ic[6] sim_time:histogram
field count 0
field mean nan
field stddev nan
field min nan
field max nan
field sum 0
field sqrsum 0
attr interpolationmode none
attr source sim_time
attr title "simTime, histogram"
bin	-inf	0
bin	0	0
bin	1	0
scalar RandomGrid.ic[6] sim_time:last nan
attr interpolationmode none
attr source sim_time
attr title "simTime, last"
scalar RandomGrid.ic[6] sim_time:min nan
attr interpolationmode none
attr source sim_time
attr title "simTime, min"
scalar RandomGrid.ic[6] sim_time:max nan
attr interpolationmode none
attr source sim_time
attr title "simTime, max"
statistic RandomGrid.ic[6] discovery_time:histogram
field count 0
field mean nan
field stddev nan
field min nan
field max nan
field sum 0
field sqrsum 0
attr interpolationmode none
attr source discovery_time
attr title "discovery time, histogram"
bin	-inf	0
bin	0	0
bin	1	0
scalar RandomGrid.ic[6] discovery_time:last nan
attr interpolationmode none
attr source discovery_time
attr title "discovery time, last"
scalar RandomGrid.ic[6] discovery_time:min nan
attr interpolationmode none
attr source discovery_time
attr title "discovery time, min"
scalar RandomGrid.ic[6] discovery_time:max nan
attr interpolationmode none
attr source discovery_time
attr title "discovery time, max"
statistic RandomGrid.ic[7] sim_time:histogram
field count 0
field mean nan
field stddev nan
field min nan
field max nan
field sum 0
field sqrsum 0
attr interpolationmode none
attr source sim_time
attr title "simTime, histogram"
bin	-inf	0
bin	0	0
bin	1	0
scalar RandomGrid.ic[7] sim_time:last nan
attr interpolationmode none
attr source sim_time
attr title "simTime, last"
scalar RandomGrid.ic[7] sim_time:min nan
attr interpolationmode none
attr source sim_time
attr title "simTime, min"
scalar RandomGrid.ic[7] sim_time:max nan
attr interpolationmode none
attr source sim_time
attr title "simTime, max"
statistic RandomGrid.ic[7] discovery_time:histogram
field count 0
field mean nan
field stddev nan
field min nan
field max nan
field sum 0
field sqrsum 0
attr interpolationmode none
attr source discovery_time
attr title "discovery time, histogram"
bin	-inf	0
bin	0	0
bin	1	0
scalar RandomGrid.ic[7] discovery_time:last nan
attr interpolationmode none
attr source discovery_time
attr title "discovery time, last"
scalar RandomGrid.ic[7] discovery_time:min nan
attr interpolationmode none
attr source discovery_time
attr title "discovery time, min"
scalar RandomGrid.ic[7] discovery_time:max nan
attr interpolationmode none
attr source discovery_time
attr title "discovery time, max"
statistic RandomGrid.ic[8] sim_time:histogram
field count 0
field mean nan
field stddev nan
field min nan
field max nan
field sum 0
field sqrsum 0
attr interpolationmode none
attr source sim_time
attr title "simTime, histogram"
bin	-inf	0
bin	0	0
bin	1	0
scalar RandomGrid.ic[8] sim_time:last nan
attr interpolationmode none
attr source sim_time
attr title "simTime, last"
scalar RandomGrid.ic[8] sim_time:min nan
attr interpolationmode none
attr source sim_time
attr title "simTime, min"
scalar RandomGrid.ic[8] sim_time:max nan
attr interpolationmode none
attr source sim_time
attr title "simTime, max"
statistic RandomGrid.ic[8] discovery_time:histogram
field count 0
field mean nan
field stddev nan
field min nan
field max nan
field sum 0
field sqrsum 0
attr interpolationmode none
attr source discovery_time
attr title "discovery time, histogram"
bin	-inf	0
bin	0	0
bin	1	0
scalar RandomGrid.ic[8] discovery_time:last nan
attr interpolationmode none
attr source discovery_time
attr title "discovery time, last"
scalar RandomGrid.ic[8] discovery_time:min nan
attr interpolationmode none
attr source discovery_time
attr title "discovery time, min"
scalar RandomGrid.ic[8] discovery_time:max nan
attr interpolationmode none
attr source discovery_time
attr title "discovery time, max"
statistic RandomGrid.ic[9] sim_time:histogram
field count 0
field mean nan
field stddev nan
field min nan
field max nan
field sum 0
field sqrsum 0
attr interpolationmode none
attr source sim_time
attr title "simTime, histogram"
bin	-inf	0
bin	0	0
bin	1	0
scalar RandomGrid.ic[9] sim_time:last nan
attr interpolationmode none
attr source sim_time
attr title "simTime, last"
scalar RandomGrid.ic[9] sim_time:min nan
attr interpolationmode none
attr source sim_time
attr title "simTime, min"
scalar RandomGrid.ic[9] sim_time:max nan
attr interpolationmode none
attr source sim_time
attr title "simTime, max"
statistic RandomGrid.ic[9] discovery_time:histogram
field count 0
field mean nan
field stddev nan
field min nan
field max nan
field sum 0
field sqrsum 0
attr interpolationmode none
attr source discovery_time
attr title "discovery time, histogram"
bin	-inf	0
bin	0	0
bin	1	0
scalar RandomGrid.ic[9] discovery_time:last nan
attr interpolationmode none
attr source discovery_time
attr title "discovery time, last"
scalar RandomGrid.ic[9] discovery_time:min nan
attr interpolationmode none
attr source discovery_time
attr title "discovery time, min"
scalar RandomGrid.ic[9] discovery_time:max nan
attr interpolationmode none
attr source discovery_time
attr title "discovery time, max"
statistic RandomGrid.ic[10] sim_time:histogram
field count 0
field mean nan
field stddev nan
field min nan
field max nan
field sum 0
field sqrsum 0
attr interpolationmode none
attr source sim_time
attr title "simTime, histogram"
bin	-inf	0
bin	0	0
bin	1	0
scalar RandomGrid.ic[10] sim_time:last nan
attr interpolationmode none
attr source sim_time
attr title "simTime, last"
scalar RandomGrid.ic[10] sim_time:min nan
attr interpolationmode none
attr source sim_time
attr title "simTime, min"
scalar RandomGrid.ic[10] sim_time:max nan
attr interpolationmode none
attr source sim_time
attr title "simTime, max"
statistic RandomGrid.ic[10] discovery_time:histogram
field count 0
field mean nan
field stddev nan
field min nan
field max nan
field sum 0
field sqrsum 0
attr interpolationmode none
attr source discovery_time
attr title "discovery time, histogram"
bin	-inf	0
bin	0	0
bin	1	0
scalar RandomGrid.ic[10] discovery_time:last nan
attr interpolationmode none
attr source discovery_time
attr title "discovery time, last"
scalar RandomGrid.ic[10] discovery_time:min nan
attr interpolationmode none
attr source discovery_time
attr title "discovery time, min"
scalar RandomGrid.ic[10] discovery_time:max nan
attr interpolationmode none
attr source discovery_time
attr title "discovery time, max"
statistic RandomGrid.ic[11] sim_time:histogram
field count 0
field mean nan
field stddev nan
field min nan
field max nan
field sum 0
field sqrsum 0
attr interpolationmode none
attr source sim_time
attr title "simTime, histogram"
bin	-inf	0
bin	0	0
bin	1	0
scalar RandomGrid.ic[11] sim_time:last nan
attr interpolationmode none
attr source sim_time
attr title "simTime, last"
scalar RandomGrid.ic[11] sim_time:min nan
attr interpolationmode none
attr source sim_time
attr title "simTime, min"
scalar RandomGrid.ic[11] sim_time:max nan
attr interpolationmode none
attr source sim_time
attr title "simTime, max"
statistic RandomGrid.ic[11] discovery_time:histogram
field count 0
field mean nan
field stddev nan
field min nan
field max nan
field sum 0
field sqrsum 0
attr interpolationmode none
attr source discovery_time
attr title "discovery time, histogram"
bin	-inf	0
bin	0	0
bin	1	0
scalar RandomGrid.ic[11] discovery_time:last nan
attr interpolationmode none
attr source discovery_time
attr title "discovery time, last"
scalar RandomGrid.ic[11] discovery_time:min nan
attr interpolationmode none
attr source discovery_time
attr title "discovery time, min"
scalar RandomGrid.ic[11] discovery_time:max nan
attr interpolationmode none
attr source discovery_time
attr title "discovery time, max"
statistic RandomGrid.ic[12] sim_time:histogram
field count 0
field mean nan
field stddev nan
field min nan
field max nan
field sum 0
field sqrsum 0
attr interpolationmode none
attr source sim_time
attr title "simTime, histogram"
bin	-inf	0
bin	0	0
bin	1	0
scalar RandomGrid.ic[12] sim_time:last nan
attr interpolationmode none
attr source sim_time
attr title "simTime, last"
scalar RandomGrid.ic[12] sim_time:min nan
attr interpolationmode none
attr source sim_time
attr title "simTime, min"
scalar RandomGrid.ic[12] sim_time:max nan
attr interpolationmode none
attr source sim_time
attr title "simTime, max"
statistic RandomGrid.ic[12] discovery_time:histogram
field count 0
field mean nan
field stddev nan
field min nan
field max nan
field sum 0
field sqrsum 0
attr interpolationmode none
attr source discovery_time
attr title "discovery time, histogram"
bin	-inf	0
bin	0	0
bin	1	0
scalar RandomGrid.ic[12] discovery_time:last nan
attr interpolationmode none
attr source discovery_time
attr title "discovery time, last"
scalar RandomGrid.ic[12] discovery_time:min nan
attr interpolationmode none
attr source discovery_time
attr title "discovery time, min"
scalar RandomGrid.ic[12] discovery_time:max nan
attr interpolationmode none
attr source discovery_time
attr title "discovery time, max"
statistic RandomGrid.ic[13] sim_time:histogram
field count 0
field mean nan
field stddev nan
field min nan
field max nan
field sum 0
field sqrsum 0
attr interpolationmode none
attr source sim_time
attr title "simTime, histogram"
bin	-inf	0
bin	0	0
bin	1	0
scalar RandomGrid.ic[13] sim_time:last nan
attr interpolationmode none
attr source sim_time
attr title "simTime, last"
scalar RandomGrid.ic[13] sim_time:min nan
attr interpolationmode none
attr source sim_time
attr title "simTime, min"
scalar RandomGrid.ic[13] sim_time:max nan
attr interpolationmode none
attr source sim_time
attr title "simTime, max"
statistic RandomGrid.ic[13] discovery_time:histogram
field count 0
field mean nan
field stddev nan
field min nan
field max nan
field sum 0
field sqrsum 0
attr interpolationmode none
attr source discovery_time
attr title "discovery time, histogram"
bin	-inf	0
bin	0	0
bin	1	0
scalar RandomGrid.ic[13] discovery_time:last nan
attr interpolationmode none
attr source discovery_time
attr title "discovery time, last"
scalar RandomGrid.ic[13] discovery_time:min nan
attr interpolationmode none
attr source discovery_time
attr title "discovery time, min"
scalar RandomGrid.ic[13] discovery_time:max nan
attr interpolationmode none
attr source discovery_time
attr title "discovery time, max"
statistic RandomGrid.ic[14] sim_time:histogram
field count 0
field mean nan
field stddev nan
field min nan
field max nan
field sum 0
field sqrsum 0
attr interpolationmode none
attr source sim_time
attr title "simTime, histogram"
bin	-inf	0
bin	0	0
bin	1	0
scalar RandomGrid.ic[14] sim_time:last nan
attr interpolationmode none
attr source sim_time
attr title "simTime, last"
scalar RandomGrid.ic[14] sim_time:min nan
attr interpolationmode none
attr source sim_time
attr title "simTime, min"
scalar RandomGrid.ic[14] sim_time:max nan
attr interpolationmode none
attr source sim_time
attr title "simTime, max"
statistic RandomGrid.ic[14] discovery_time:histogram
field count 0
field mean nan
field stddev nan
field min nan
field max nan
field sum 0
field sqrsum 0
attr interpolationmode none
attr source discovery_time
attr title "discovery time, histogram"
bin	-inf	0
bin	0	0
bin	1	0
scalar RandomGrid.ic[14] discovery_time:last nan
attr interpolationmode none
attr source discovery_time
attr title "discovery time, last"
scalar RandomGrid.ic[14] discovery_time:min nan
attr interpolationmode none
attr source discovery_time
attr title "discovery time, min"
scalar RandomGrid.ic[14] discovery_time:max nan
attr interpolationmode none
attr source discovery_time
attr title "discovery time, max"
statistic RandomGrid.ic[15] sim_time:histogram
field count 0
field mean nan
field stddev nan
field min nan
field max nan
field sum 0
field sqrsum 0
attr interpolationmode none
attr source sim_time
attr title "simTime, histogram"
bin	-inf	0
bin	0	0
bin	1	0
scalar RandomGrid.ic[15] sim_time:last nan
attr interpolationmode none
attr source sim_time
attr title "simTime, last"
scalar RandomGrid.ic[15] sim_time:min nan
attr interpolationmode none
attr source sim_time
attr title "simTime, min"
scalar RandomGrid.ic[15] sim_time:max nan
attr interpolationmode none
attr source sim_time
attr title "simTime, max"
statistic RandomGrid.ic[15] discovery_time:histogram
field count 0
field mean nan
field stddev nan
field min nan
field max nan
field sum 0
field sqrsum 0
attr interpolationmode none
attr source discovery_time
attr title "discovery time, histogram"
bin	-inf	0
bin	0	0
bin	1	0
scalar RandomGrid.ic[15] discovery_time:last nan
attr interpolationmode none
attr source discovery_time
attr title "discovery time, last"
scalar RandomGrid.ic[15] discovery_time:min nan
attr interpolationmode none
attr source discovery_time
attr title "discovery time, min"
scalar RandomGrid.ic[15] discovery_time:max nan
attr interpolationmode none
attr source discovery_time
attr title "discovery time, max"
statistic RandomGrid.ic[16] sim_time:histogram
field count 0
field mean nan
field stddev nan
field min nan
field max nan
field sum 0
field sqrsum 0
attr interpolationmode none
attr source sim_time
attr title "simTime, histogram"
bin	-inf	0
bin	0	0
bin	1	0
scalar RandomGrid.ic[16] sim_time:last nan
attr interpolationmode none
attr source sim_time
attr title "simTime, last"
scalar RandomGrid.ic[16] sim_time:min nan
attr interpolationmode none
attr source sim_time
attr title "simTime, min"
scalar RandomGrid.ic[16] sim_time:max nan
attr interpolationmode none
attr source sim_time
attr title "simTime, max"
statistic RandomGrid.ic[16] discovery_time:histogram
field count 0
field mean nan
field stddev nan
field min nan
field max nan
field sum 0
field sqrsum 0
attr interpolationmode none
attr source discovery_time
attr title "discovery time, histogram"
bin	-inf	0
bin	0	0
bin	1	0
scalar RandomGrid.ic[16] discovery_time:last nan
attr interpolationmode none
attr source discovery_time
attr title "discovery time, last"
scalar RandomGrid.ic[16] discovery_time:min nan
attr interpolationmode none
attr source discovery_time
attr title "discovery time, min"
scalar RandomGrid.ic[16] discovery_time:max nan
attr interpolationmode none
attr source discovery_time
attr title "discovery time, max"
statistic RandomGrid.ic[17] sim_time:histogram
field count 0
field mean nan
field stddev nan
field min nan
field max nan
field sum 0
field sqrsum 0
attr interpolationmode none
attr source sim_time
attr title "simTime, histogram"
bin	-inf	0
bin	0	0
bin	1	0
scalar RandomGrid.ic[17] sim_time:last nan
attr interpolationmode none
attr source sim_time
attr title "simTime, last"
scalar RandomGrid.ic[17] sim_time:min nan
attr interpolationmode none
attr source sim_time
attr title "simTime, min"
scalar RandomGrid.ic[17] sim_time:max nan
attr interpolationmode none
attr source sim_time
attr title "simTime, max"
statistic RandomGrid.ic[17] discovery_time:histogram
field count 0
field mean nan
field stddev nan
field min nan
field max nan
field sum 0
field sqrsum 0
attr interpolationmode none
attr source discovery_time
attr title "discovery time, histogram"
bin	-inf	0
bin	0	0
bin	1	0
scalar RandomGrid.ic[17] discovery_time:last nan
attr interpolationmode none
attr source discovery_time
attr title "discovery time, last"
scalar RandomGrid.ic[17] discovery_time:min nan
attr interpolationmode none
attr source discovery_time
attr title "discovery time, min"
scalar RandomGrid.ic[17] discovery_time:max nan
attr interpolationmode none
attr source discovery_time
attr title "discovery time, max"
statistic RandomGrid.ic[18] sim_time:histogram
field count 0
field mean nan
field stddev nan
field min nan
field max nan
field sum 0
field sqrsum 0
attr interpolationmode none
attr source sim_time
attr title "simTime, histogram"
bin	-inf	0
bin	0	0
bin	1	0
scalar RandomGrid.ic[18] sim_time:last nan
attr interpolationmode none
attr source sim_time
attr title "simTime, last"
scalar RandomGrid.ic[18] sim_time:min nan
attr interpolationmode none
attr source sim_time
attr title "simTime, min"
scalar RandomGrid.ic[18] sim_time:max nan
attr interpolationmode none
attr source sim_time
attr title "simTime, max"
statistic RandomGrid.ic[18] discovery_time:histogram
field count 0
field mean nan
field stddev nan
field min nan
field max nan
field sum 0
field sqrsum 0
attr interpolationmode none
attr source discovery_time
attr title "discovery time, histogram"
bin	-inf	0
bin	0	0
bin	1	0
scalar RandomGrid.ic[18] discovery_time:last nan
attr interpolationmode none
attr source discovery_time
attr title "discovery time, last"
scalar RandomGrid.ic[18] discovery_time:min nan
attr interpolationmode none
attr source discovery_time
attr title "discovery time, min"
scalar RandomGrid.ic[18] discovery_time:max nan
attr interpolationmode none
attr source discovery_time
attr title "discovery time, max"
statistic RandomGrid.ic[19] sim_time:histogram
field count 0
field mean nan
field stddev nan
field min nan
field max nan
field sum 0
field sqrsum 0
attr interpolationmode none
attr source sim_time
attr title "simTime, histogram"
bin	-inf	0
bin	0	0
bin	1	0
scalar RandomGrid.ic[19] sim_time:last nan
attr interpolationmode none
attr source sim_time
attr title "simTime, last"
scalar RandomGrid.ic[19] sim_time:min nan
attr interpolationmode none
attr source sim_time
attr title "simTime, min"
scalar RandomGrid.ic[19] sim_time:max nan
attr interpolationmode none
attr source sim_time
attr title "simTime, max"
statistic RandomGrid.ic[19] discovery_time:histogram
field count 0
field mean nan
field stddev nan
field min nan
field max nan
field sum 0
field sqrsum 0
attr interpolationmode none
attr source discovery_time
attr title "discovery time, histogram"
bin	-inf	0
bin	0	0
bin	1	0
scalar RandomGrid.ic[19] discovery_time:last nan
attr interpolationmode none
attr source discovery_time
attr title "discovery time, last"
scalar RandomGrid.ic[19] discovery_time:min nan
attr interpolationmode none
attr source discovery_time
attr title "discovery time, min"
scalar RandomGrid.ic[19] discovery_time:max nan
attr interpolationmode none
attr source discovery_time
attr title "discovery time, max"
statistic RandomGrid.ic[20] sim_time:histogram
field count 0
field mean nan
field stddev nan
field min nan
field max nan
field sum 0
field sqrsum 0
attr interpolationmode none
attr source sim_time
attr title "simTime, histogram"
bin	-inf	0
bin	0	0
bin	1	0
scalar RandomGrid.ic[20] sim_time:last nan
attr interpolationmode none
attr source sim_time
attr title "simTime, last"
scalar RandomGrid.ic[20] sim_time:min nan
attr interpolationmode none
attr source sim_time
attr title "simTime, min"
scalar RandomGrid.ic[20] sim_time:max nan
attr interpolationmode none
attr source sim_time
attr title "simTime, max"
statistic RandomGrid.ic[20] discovery_time:histogram
field count 0
field mean nan
field stddev nan
field min nan
field max nan
field sum 0
field sqrsum 0
attr interpolationmode none
attr source discovery_time
attr title "discovery time, histogram"
bin	-inf	0
bin	0	0
bin	1	0
scalar RandomGrid.ic[20] discovery_time:last nan
attr interpolationmode none
attr source discovery_time
attr title "discovery time, last"
scalar RandomGrid.ic[20] discovery_time:min nan
attr interpolationmode none
attr source discovery_time
attr title "discovery time, min"
scalar RandomGrid.ic[20] discovery_time:max nan
attr interpolationmode none
attr source discovery_time
attr title "discovery time, max"
statistic RandomGrid.ic[21] sim_time:histogram
field count 0
field mean nan
field stddev nan
field min nan
field max nan
field sum 0
field sqrsum 0
attr interpolationmode none
attr source sim_time
attr title "simTime, histogram"
bin	-inf	0
bin	0	0
bin	1	0
scalar RandomGrid.ic[21] sim_time:last nan
attr interpolationmode none
attr source sim_time
attr title "simTime, last"
scalar RandomGrid.ic[21] sim_time:min nan
attr interpolationmode none
attr source sim_time
attr title "simTime, min"
scalar RandomGrid.ic[21] sim_time:max nan
attr interpolationmode none
attr source sim_time
attr title "simTime, max"
statistic RandomGrid.ic[21] discovery_time:histogram
field count 0
field mean nan
field stddev nan
field min nan
field max nan
field sum 0
field sqrsum 0
attr interpolationmode none
attr source discovery_time
attr title "discovery time, histogram"
bin	-inf	0
bin	0	0
bin	1	0
scalar RandomGrid.ic[21] discovery_time:last nan
attr interpolationmode none
attr source discovery_time
attr title "discovery time, last"
scalar RandomGrid.ic[21] discovery_time:min nan
attr interpolationmode none
attr source discovery_time
attr title "discovery time, min"
scalar RandomGrid.ic[21] discovery_time:max nan
attr interpolationmode none
attr source discovery_time
attr title "discovery time, max"
statistic RandomGrid.ic[22] sim_time:histogram
field count 0
field mean nan
field stddev nan
field min nan
field max nan
field sum 0
field sqrsum 0
attr interpolationmode none
attr source sim_time
attr title "simTime, histogram"
bin	-inf	0
bin	0	0
bin	1	0
scalar RandomGrid.ic[22] sim_time:last nan
attr interpolationmode none
attr source sim_time
attr title "simTime, last"
scalar RandomGrid.ic[22] sim_time:min nan
attr interpolationmode none
attr source sim_time
attr title "simTime, min"
scalar RandomGrid.ic[22] sim_time:max nan
attr interpolationmode none
attr source sim_time
attr title "simTime, max"
statistic RandomGrid.ic[22] discovery_time:histogram
field count 0
field mean nan
field stddev nan
field min nan
field max nan
field sum 0
field sqrsum 0
attr interpolationmode none
attr source discovery_time
attr title "discovery time, histogram"
bin	-inf	0
bin	0	0
bin	1	0
scalar RandomGrid.ic[22] discovery_time:last nan
attr interpolationmode none
attr source discovery_time
attr title "discovery time, last"
scalar RandomGrid.ic[22] discovery_time:min nan
attr interpolationmode none
attr source discovery_time
attr title "discovery time, min"
scalar RandomGrid.ic[22] discovery_time:max nan
attr interpolationmode none
attr source discovery_time
attr title "discovery time, max"
statistic RandomGrid.ic[23] sim_time:histogram
field count 0
field mean nan
field stddev nan
field min nan
field max nan
field sum 0
field sqrsum 0
attr interpolationmode none
attr source sim_time
attr title "simTime, histogram"
bin	-inf	0
bin	0	0
bin	1	0
scalar RandomGrid.ic[23] sim_time:last nan
attr interpolationmode none
attr source sim_time
attr title "simTime, last"
scalar RandomGrid.ic[23] sim_time:min nan
attr interpolationmode none
attr source sim_time
attr title "simTime, min"
scalar RandomGrid.ic[23] sim_time:max nan
attr interpolationmode none
attr source sim_time
attr title "simTime, max"
statistic RandomGrid.ic[23] discovery_time:histogram
field count 0
field mean nan
field stddev nan
field min nan
field max nan
field sum 0
field sqrsum 0
attr interpolationmode none
attr source discovery_time
attr title "discovery time, histogram"
bin	-inf	0
bin	0	0
bin	1	0
scalar RandomGrid.ic[23] discovery_time:last nan
attr interpolationmode none
attr source discovery_time
attr title "discovery time, last"
scalar RandomGrid.ic[23] discovery_time:min nan
attr interpolationmode none
attr source discovery_time
attr title "discovery time, min"
scalar RandomGrid.ic[23] discovery_time:max nan
attr interpolationmode none
attr source discovery_time
attr title "discovery time, max"
statistic RandomGrid.ic[24] sim_time:histogram
field count 0
field mean nan
field stddev nan
field min nan
field max nan
field sum 0
field sqrsum 0
attr interpolationmode none
attr source sim_time
attr title "simTime, histogram"
bin	-inf	0
bin	0	0
bin	1	0
scalar RandomGrid.ic[24] sim_time:last nan
attr interpolationmode none
attr source sim_time
attr title "simTime, last"
scalar RandomGrid.ic[24] sim_time:min nan
attr interpolationmode none
attr source sim_time
attr title "simTime, min"
scalar RandomGrid.ic[24] sim_time:max nan
attr interpolationmode none
attr source sim_time
attr title "simTime, max"
statistic RandomGrid.ic[24] discovery_time:histogram
field count 0
field mean nan
field stddev nan
field min nan
field max nan
field sum 0
field sqrsum 0
attr interpolationmode none
attr source discovery_time
attr title "discovery time, histogram"
bin	-inf	0
bin	0	0
bin	1	0
scalar RandomGrid.ic[24] discovery_time:last nan
attr interpolationmode none
attr source discovery_time
attr title "discovery time, last"
scalar RandomGrid.ic[24] discovery_time:min nan
attr interpolationmode none
attr source discovery_time
attr title "discovery time, min"
scalar RandomGrid.ic[24] discovery_time:max nan
attr interpolationmode none
attr source discovery_time
attr title "discovery time, max"
statistic RandomGrid.ic[25] sim_time:histogram
field count 0
field mean nan
field stddev nan
field min nan
field max nan
field sum 0
field sqrsum 0
attr interpolationmode none
attr source sim_time
attr title "simTime, histogram"
bin	-inf	0
bin	0	0
bin	1	0
scalar RandomGrid.ic[25] sim_time:last nan
attr interpolationmode none
attr source sim_time
attr title "simTime, last"
scalar RandomGrid.ic[25] sim_time:min nan
attr interpolationmode none
attr source sim_time
attr title "simTime, min"
scalar RandomGrid.ic[25] sim_time:max nan
attr interpolationmode none
attr source sim_time
attr title "simTime, max"
statistic RandomGrid.ic[25] discovery_time:histogram
field count 0
field mean nan
field stddev nan
field min nan
field max nan
field sum 0
field sqrsum 0
attr interpolationmode none
attr source discovery_time
attr title "discovery time, histogram"
bin	-inf	0
bin	0	0
bin	1	0
scalar RandomGrid.ic[25] discovery_time:last nan
attr interpolationmode none
attr source discovery_time
attr title "discovery time, last"
scalar RandomGrid.ic[25] discovery_time:min nan
attr interpolationmode none
attr source discovery_time
attr title "discovery time, min"
scalar RandomGrid.ic[25] discovery_time:max nan
attr interpolationmode none
attr source discovery_time
attr title "discovery time, max"
statistic RandomGrid.ic[26] sim_time:histogram
field count 0
field mean nan
field stddev nan
field min nan
field max nan
field sum 0
field sqrsum 0
attr interpolationmode none
attr source sim_time
attr title "simTime, histogram"
bin	-inf	0
bin	0	0
bin	1	0
scalar RandomGrid.ic[26] sim_time:last nan
attr interpolationmode none
attr source sim_time
attr title "simTime, last"
scalar RandomGrid.ic[26] sim_time:min nan
attr interpolationmode none
attr source sim_time
attr title "simTime, min"
scalar RandomGrid.ic[26] sim_time:max nan
attr interpolationmode none
attr source sim_time
attr title "simTime, max"
statistic RandomGrid.ic[26] discovery_time:histogram
field count 0
field mean nan
field stddev nan
field min nan
field max nan
field sum 0
field sqrsum 0
attr interpolationmode none
attr source discovery_time
attr title "discovery time, histogram"
bin	-inf	0
bin	0	0
bin	1	0
scalar RandomGrid.ic[26] discovery_time:last nan
attr interpolationmode none
attr source discovery_time
attr title "discovery time, last"
scalar RandomGrid.ic[26] discovery_time:min nan
attr interpolationmode none
attr source discovery_time
attr title "discovery time, min"
scalar RandomGrid.ic[26] discovery_time:max nan
attr interpolationmode none
attr source discovery_time
attr title "discovery time, max"
statistic RandomGrid.ic[27] sim_time:histogram
field count 0
field mean nan
field stddev nan
field min nan
field max nan
field sum 0
field sqrsum 0
attr interpolationmode none
attr source sim_time
attr title "simTime, histogram"
bin	-inf	0
bin	0	0
bin	1	0
scalar RandomGrid.ic[27] sim_time:last nan
attr interpolationmode none
attr source sim_time
attr title "simTime, last"
scalar RandomGrid.ic[27] sim_time:min nan
attr interpolationmode none
attr source sim_time
attr title "simTime, min"
scalar RandomGrid.ic[27] sim_time:max nan
attr interpolationmode none
attr source sim_time
attr title "simTime, max"
statistic RandomGrid.ic[27] discovery_time:histogram
field count 0
field mean nan
field stddev nan
field min nan
field max nan
field sum 0
field sqrsum 0
attr interpolationmode none
attr source discovery_time
attr title "discovery time, histogram"
bin	-inf	0
bin	0	0
bin	1	0
scalar RandomGrid.ic[27] discovery_time:last nan
attr interpolationmode none
attr source discovery_time
attr title "discovery time, last"
scalar RandomGrid.ic[27] discovery_time:min nan
attr interpolationmode none
attr source discovery_time
attr title "discovery time, min"
scalar RandomGrid.ic[27] discovery_time:max nan
attr interpolationmode none
attr source discovery_time
attr title "discovery time, max"
statistic RandomGrid.ic[28] sim_time:histogram
field count 0
field mean nan
field stddev nan
field min nan
field max nan
field sum 0
field sqrsum 0
attr interpolationmode none
attr source sim_time
attr title "simTime, histogram"
bin	-inf	0
bin	0	0
bin	1	0
scalar RandomGrid.ic[28] sim_time:last nan
attr interpolationmode none
attr source sim_time
attr title "simTime, last"
scalar RandomGrid.ic[28] sim_time:min nan
attr interpolationmode none
attr source sim_time
attr title "simTime, min"
scalar RandomGrid.ic[28] sim_time:max nan
attr interpolationmode none
attr source sim_time
attr title "simTime, max"
statistic RandomGrid.ic[28] discovery_time:histogram
field count 0
field mean nan
field stddev nan
field min nan
field max nan
field sum 0
field sqrsum 0
attr interpolationmode none
attr source discovery_time
attr title "discovery time, histogram"
bin	-inf	0
bin	0	0
bin	1	0
scalar RandomGrid.ic[28] discovery_time:last nan
attr interpolationmode none
attr source discovery_time
attr title "discovery time, last"
scalar RandomGrid.ic[28] discovery_time:min nan
attr interpolationmode none
attr source discovery_time
attr title "discovery time, min"
scalar RandomGrid.ic[28] discovery_time:max nan
attr interpolationmode none
attr source discovery_time
attr title "discovery time, max"
statistic RandomGrid.ic[29] sim_time:histogram
field count 0
field mean nan
field stddev nan
field min nan
field max nan
field sum 0
field sqrsum 0
attr interpolationmode none
attr source sim_time
attr title "simTime, histogram"
bin	-inf	0
bin	0	0
bin	1	0
scalar RandomGrid.ic[29] sim_time:last nan
attr interpolationmode none
attr source sim_time
attr title "simTime, last"
scalar RandomGrid.ic[29] sim_time:min nan
attr interpolationmode none
attr source sim_time
attr title "simTime, min"
scalar RandomGrid.ic[29] sim_time:max nan
attr interpolationmode none
attr source sim_time
attr title "simTime, max"
statistic RandomGrid.ic[29] discovery_time:histogram
field count 0
field mean nan
field stddev nan
field min nan
field max nan
field sum 0
field sqrsum 0
attr interpolationmode none
attr source discovery_time
attr title "discovery time, histogram"
bin	-inf	0
bin	0	0
bin	1	0
scalar RandomGrid.ic[29] discovery_time:last nan
attr interpolationmode none
attr source discovery_time
attr title "discovery time, last"
scalar RandomGrid.ic[29] discovery_time:min nan
attr interpolationmode none
attr source discovery_time
attr title "discovery time, min"
scalar RandomGrid.ic[29] discovery_time:max nan
attr interpolationmode none
attr source discovery_time
attr title "discovery time, max"

