version 2
run General-2-20240819-17:00:57-23360
attr configname General
attr datetime 20240819-17:00:57
attr experiment General
attr inifile omnetpp.ini
attr iterationvars $0=10
attr iterationvarsf 10-
attr measurement $0=10
attr network src.RandomGrid
attr processid 23360
attr repetition 0
attr replication #0
attr resultdir results
attr runnumber 2
attr seedset 2
param RandomGrid.poweroff_rate 10
param RandomGrid.g_ic_num 6
param RandomGrid.g_energy_model 0
param RandomGrid.power_off_switch true
param RandomGrid.g_reduce_scheme 2
param RandomGrid.sink.node_type 0
param RandomGrid.icc.node_type 2
param RandomGrid.ic[*].node_type 1
param RandomGrid.ic[*].g_if_produce_packets false

statistic RandomGrid.sink sim_time:histogram
field count 1
field mean 841.84
field stddev nan
field min 841.84
field max 841.84
field sum 841.84
field sqrsum 708694.5856
attr interpolationmode none
attr source sim_time
attr title "simTime, histogram"
bin	-inf	0
bin	841.34	0
bin	841.36	0
bin	841.38	0
bin	841.4	0
bin	841.42	0
bin	841.44	0
bin	841.46	0
bin	841.48	0
bin	841.5	0
bin	841.52	0
bin	841.54	0
bin	841.56	0
bin	841.58	0
bin	841.6	0
bin	841.62	0
bin	841.64	0
bin	841.66	0
bin	841.68	0
bin	841.7	0
bin	841.72	0
bin	841.74	0
bin	841.76	0
bin	841.78	0
bin	841.8	0
bin	841.82	0
bin	841.84	1
bin	841.86	0
bin	841.88	0
bin	841.9	0
bin	841.92	0
bin	841.94	0
bin	841.96	0
bin	841.98	0
bin	842	0
bin	842.02	0
bin	842.04	0
bin	842.06	0
bin	842.08	0
bin	842.1	0
bin	842.12	0
bin	842.14	0
bin	842.16	0
bin	842.18	0
bin	842.2	0
bin	842.22	0
bin	842.24	0
bin	842.26	0
bin	842.28	0
bin	842.3	0
bin	842.32	0
bin	842.34	0
scalar RandomGrid.sink sim_time:last 841.84
attr interpolationmode none
attr source sim_time
attr title "simTime, last"
scalar RandomGrid.sink sim_time:min 841.84
attr interpolationmode none
attr source sim_time
attr title "simTime, min"
scalar RandomGrid.sink sim_time:max 841.84
attr interpolationmode none
attr source sim_time
attr title "simTime, max"
statistic RandomGrid.sink discovery_time:histogram
field count 1
field mean 0.266
field stddev nan
field min 0.266
field max 0.266
field sum 0.266
field sqrsum 0.070756
attr interpolationmode none
attr source discovery_time
attr title "discovery time, histogram"
bin	-inf	0
bin	0	0
bin	0.01	0
bin	0.02	0
bin	0.03	0
bin	0.04	0
bin	0.05	0
bin	0.06	0
bin	0.07	0
bin	0.08	0
bin	0.09	0
bin	0.1	0
bin	0.11	0
bin	0.12	0
bin	0.13	0
bin	0.14	0
bin	0.15	0
bin	0.16	0
bin	0.17	0
bin	0.18	0
bin	0.19	0
bin	0.2	0
bin	0.21	0
bin	0.22	0
bin	0.23	0
bin	0.24	0
bin	0.25	0
bin	0.26	1
bin	0.27	0
bin	0.28	0
bin	0.29	0
bin	0.3	0
bin	0.31	0
bin	0.32	0
bin	0.33	0
bin	0.34	0
bin	0.35	0
bin	0.36	0
bin	0.37	0
bin	0.38	0
bin	0.39	0
bin	0.4	0
bin	0.41	0
bin	0.42	0
bin	0.43	0
bin	0.44	0
bin	0.45	0
bin	0.46	0
bin	0.47	0
bin	0.48	0
bin	0.49	0
bin	0.5	0
bin	0.51	0
bin	0.52	0
bin	0.53	0
bin	0.54	0
bin	0.55	0
bin	0.56	0
bin	0.57	0
bin	0.58	0
bin	0.59	0
bin	0.6	0
bin	0.61	0
bin	0.62	0
bin	0.63	0
bin	0.64	0
bin	0.65	0
bin	0.66	0
bin	0.67	0
bin	0.68	0
bin	0.69	0
bin	0.7	0
bin	0.71	0
bin	0.72	0
bin	0.73	0
bin	0.74	0
bin	0.75	0
bin	0.76	0
bin	0.77	0
scalar RandomGrid.sink discovery_time:last 0.266
attr interpolationmode none
attr source discovery_time
attr title "discovery time, last"
scalar RandomGrid.sink discovery_time:min 0.266
attr interpolationmode none
attr source discovery_time
attr title "discovery time, min"
scalar RandomGrid.sink discovery_time:max 0.266
attr interpolationmode none
attr source discovery_time
attr title "discovery time, max"
statistic RandomGrid.icc sim_time:histogram
field count 0
field mean nan
field stddev nan
field min nan
field max nan
field sum 0
field sqrsum 0
attr interpolationmode none
attr source sim_time
attr title "simTime, histogram"
bin	-inf	0
bin	0	0
bin	1	0
scalar RandomGrid.icc sim_time:last nan
attr interpolationmode none
attr source sim_time
attr title "simTime, last"
scalar RandomGrid.icc sim_time:min nan
attr interpolationmode none
attr source sim_time
attr title "simTime, min"
scalar RandomGrid.icc sim_time:max nan
attr interpolationmode none
attr source sim_time
attr title "simTime, max"
statistic RandomGrid.icc discovery_time:histogram
field count 0
field mean nan
field stddev nan
field min nan
field max nan
field sum 0
field sqrsum 0
attr interpolationmode none
attr source discovery_time
attr title "discovery time, histogram"
bin	-inf	0
bin	0	0
bin	1	0
scalar RandomGrid.icc discovery_time:last nan
attr interpolationmode none
attr source discovery_time
attr title "discovery time, last"
scalar RandomGrid.icc discovery_time:min nan
attr interpolationmode none
attr source discovery_time
attr title "discovery time, min"
scalar RandomGrid.icc discovery_time:max nan
attr interpolationmode none
attr source discovery_time
attr title "discovery time, max"
statistic RandomGrid.ic[0] sim_time:histogram
field count 0
field mean nan
field stddev nan
field min nan
field max nan
field sum 0
field sqrsum 0
attr interpolationmode none
attr source sim_time
attr title "simTime, histogram"
bin	-inf	0
bin	0	0
bin	1	0
scalar RandomGrid.ic[0] sim_time:last nan
attr interpolationmode none
attr source sim_time
attr title "simTime, last"
scalar RandomGrid.ic[0] sim_time:min nan
attr interpolationmode none
attr source sim_time
attr title "simTime, min"
scalar RandomGrid.ic[0] sim_time:max nan
attr interpolationmode none
attr source sim_time
attr title "simTime, max"
statistic RandomGrid.ic[0] discovery_time:histogram
field count 0
field mean nan
field stddev nan
field min nan
field max nan
field sum 0
field sqrsum 0
attr interpolationmode none
attr source discovery_time
attr title "discovery time, histogram"
bin	-inf	0
bin	0	0
bin	1	0
scalar RandomGrid.ic[0] discovery_time:last nan
attr interpolationmode none
attr source discovery_time
attr title "discovery time, last"
scalar RandomGrid.ic[0] discovery_time:min nan
attr interpolationmode none
attr source discovery_time
attr title "discovery time, min"
scalar RandomGrid.ic[0] discovery_time:max nan
attr interpolationmode none
attr source discovery_time
attr title "discovery time, max"
statistic RandomGrid.ic[1] sim_time:histogram
field count 0
field mean nan
field stddev nan
field min nan
field max nan
field sum 0
field sqrsum 0
attr interpolationmode none
attr source sim_time
attr title "simTime, histogram"
bin	-inf	0
bin	0	0
bin	1	0
scalar RandomGrid.ic[1] sim_time:last nan
attr interpolationmode none
attr source sim_time
attr title "simTime, last"
scalar RandomGrid.ic[1] sim_time:min nan
attr interpolationmode none
attr source sim_time
attr title "simTime, min"
scalar RandomGrid.ic[1] sim_time:max nan
attr interpolationmode none
attr source sim_time
attr title "simTime, max"
statistic RandomGrid.ic[1] discovery_time:histogram
field count 0
field mean nan
field stddev nan
field min nan
field max nan
field sum 0
field sqrsum 0
attr interpolationmode none
attr source discovery_time
attr title "discovery time, histogram"
bin	-inf	0
bin	0	0
bin	1	0
scalar RandomGrid.ic[1] discovery_time:last nan
attr interpolationmode none
attr source discovery_time
attr title "discovery time, last"
scalar RandomGrid.ic[1] discovery_time:min nan
attr interpolationmode none
attr source discovery_time
attr title "discovery time, min"
scalar RandomGrid.ic[1] discovery_time:max nan
attr interpolationmode none
attr source discovery_time
attr title "discovery time, max"
statistic RandomGrid.ic[2] sim_time:histogram
field count 0
field mean nan
field stddev nan
field min nan
field max nan
field sum 0
field sqrsum 0
attr interpolationmode none
attr source sim_time
attr title "simTime, histogram"
bin	-inf	0
bin	0	0
bin	1	0
scalar RandomGrid.ic[2] sim_time:last nan
attr interpolationmode none
attr source sim_time
attr title "simTime, last"
scalar RandomGrid.ic[2] sim_time:min nan
attr interpolationmode none
attr source sim_time
attr title "simTime, min"
scalar RandomGrid.ic[2] sim_time:max nan
attr interpolationmode none
attr source sim_time
attr title "simTime, max"
statistic RandomGrid.ic[2] discovery_time:histogram
field count 0
field mean nan
field stddev nan
field min nan
field max nan
field sum 0
field sqrsum 0
attr interpolationmode none
attr source discovery_time
attr title "discovery time, histogram"
bin	-inf	0
bin	0	0
bin	1	0
scalar RandomGrid.ic[2] discovery_time:last nan
attr interpolationmode none
attr source discovery_time
attr title "discovery time, last"
scalar RandomGrid.ic[2] discovery_time:min nan
attr interpolationmode none
attr source discovery_time
attr title "discovery time, min"
scalar RandomGrid.ic[2] discovery_time:max nan
attr interpolationmode none
attr source discovery_time
attr title "discovery time, max"
statistic RandomGrid.ic[3] sim_time:histogram
field count 0
field mean nan
field stddev nan
field min nan
field max nan
field sum 0
field sqrsum 0
attr interpolationmode none
attr source sim_time
attr title "simTime, histogram"
bin	-inf	0
bin	0	0
bin	1	0
scalar RandomGrid.ic[3] sim_time:last nan
attr interpolationmode none
attr source sim_time
attr title "simTime, last"
scalar RandomGrid.ic[3] sim_time:min nan
attr interpolationmode none
attr source sim_time
attr title "simTime, min"
scalar RandomGrid.ic[3] sim_time:max nan
attr interpolationmode none
attr source sim_time
attr title "simTime, max"
statistic RandomGrid.ic[3] discovery_time:histogram
field count 0
field mean nan
field stddev nan
field min nan
field max nan
field sum 0
field sqrsum 0
attr interpolationmode none
attr source discovery_time
attr title "discovery time, histogram"
bin	-inf	0
bin	0	0
bin	1	0
scalar RandomGrid.ic[3] discovery_time:last nan
attr interpolationmode none
attr source discovery_time
attr title "discovery time, last"
scalar RandomGrid.ic[3] discovery_time:min nan
attr interpolationmode none
attr source discovery_time
attr title "discovery time, min"
scalar RandomGrid.ic[3] discovery_time:max nan
attr interpolationmode none
attr source discovery_time
attr title "discovery time, max"
statistic RandomGrid.ic[4] sim_time:histogram
field count 0
field mean nan
field stddev nan
field min nan
field max nan
field sum 0
field sqrsum 0
attr interpolationmode none
attr source sim_time
attr title "simTime, histogram"
bin	-inf	0
bin	0	0
bin	1	0
scalar RandomGrid.ic[4] sim_time:last nan
attr interpolationmode none
attr source sim_time
attr title "simTime, last"
scalar RandomGrid.ic[4] sim_time:min nan
attr interpolationmode none
attr source sim_time
attr title "simTime, min"
scalar RandomGrid.ic[4] sim_time:max nan
attr interpolationmode none
attr source sim_time
attr title "simTime, max"
statistic RandomGrid.ic[4] discovery_time:histogram
field count 0
field mean nan
field stddev nan
field min nan
field max nan
field sum 0
field sqrsum 0
attr interpolationmode none
attr source discovery_time
attr title "discovery time, histogram"
bin	-inf	0
bin	0	0
bin	1	0
scalar RandomGrid.ic[4] discovery_time:last nan
attr interpolationmode none
attr source discovery_time
attr title "discovery time, last"
scalar RandomGrid.ic[4] discovery_time:min nan
attr interpolationmode none
attr source discovery_time
attr title "discovery time, min"
scalar RandomGrid.ic[4] discovery_time:max nan
attr interpolationmode none
attr source discovery_time
attr title "discovery time, max"
statistic RandomGrid.ic[5] sim_time:histogram
field count 0
field mean nan
field stddev nan
field min nan
field max nan
field sum 0
field sqrsum 0
attr interpolationmode none
attr source sim_time
attr title "simTime, histogram"
bin	-inf	0
bin	0	0
bin	1	0
scalar RandomGrid.ic[5] sim_time:last nan
attr interpolationmode none
attr source sim_time
attr title "simTime, last"
scalar RandomGrid.ic[5] sim_time:min nan
attr interpolationmode none
attr source sim_time
attr title "simTime, min"
scalar RandomGrid.ic[5] sim_time:max nan
attr interpolationmode none
attr source sim_time
attr title "simTime, max"
statistic RandomGrid.ic[5] discovery_time:histogram
field count 0
field mean nan
field stddev nan
field min nan
field max nan
field sum 0
field sqrsum 0
attr interpolationmode none
attr source discovery_time
attr title "discovery time, histogram"
bin	-inf	0
bin	0	0
bin	1	0
scalar RandomGrid.ic[5] discovery_time:last nan
attr interpolationmode none
attr source discovery_time
attr title "discovery time, last"
scalar RandomGrid.ic[5] discovery_time:min nan
attr interpolationmode none
attr source discovery_time
attr title "discovery time, min"
scalar RandomGrid.ic[5] discovery_time:max nan
attr interpolationmode none
attr source discovery_time
attr title "discovery time, max"

